Circuit: * D:\SVN_LOCAL\bt-lights\trunk\Simulations\hv_sync_sim.asc

Direct Newton iteration for .op point succeeded.

Date: Sat Jan 21 18:13:58 2012
Total elapsed time: 0.332 seconds.

tnom = 27
temp = 27
method = modified trap
totiter = 6621
traniter = 6578
tranpoints = 2024
accept = 1460
rejected = 564
matrix size = 25
fillins = 33
solver = Normal
Matrix Compiler1: 3,50 KB object code size  1.9/0.9/[0.5]
Matrix Compiler2: off  [0.7]/0.9/1.5


