Circuit: * C:\Users\benni\Documents\Visual Studio 2010\Projects\Lights_v1.0\Schematics\hv_sync_sim.asc

Direct Newton iteration for .op point succeeded.

Date: Tue Sep 20 17:43:46 2011
Total elapsed time: 0.216 seconds.

tnom = 27
temp = 27
method = modified trap
totiter = 6377
traniter = 6332
tranpoints = 1909
accept = 1363
rejected = 546
matrix size = 25
fillins = 33
solver = Normal
Matrix Compiler1: 3,50 KB object code size  0.9/0.4/[0.2]
Matrix Compiler2: off  [0.3]/0.3/0.7


