Circuit: * C:\Users\benni\Documents\Visual Studio 2010\Projects\Lights_v1.0\Schematics\hv_sync_sim_v2.asc

WARNING: Node N005 is floating.

.OP point found by inspection.
Heightened Def Con from 2.05552e-007 +to 2.05677e-007
Heightened Def Con from 2.05783e-007 to 2.05783e-007
Heightened Def Con from 2.05783e-007 to 2.05783e-007
Heightened Def Con from 2.05785e-007 to 2.0691e-007
Heightened Def Con from 2.07167e-007 to 2.07167e-007
Heightened Def Con from 2.07167e-007 +++to 2.07168e-007
Heightened Def Con from 2.07173e-007 to 2.07298e-007
Heightened Def Con from 2.07298e-007 to 2.09298e-007
Heightened Def Con from 2.15457e-007 to 2.17457e-007
Heightened Def Con from 2.19963e-007 to 2.19978e-007
Heightened Def Con from 2.19978e-007 to 2.19994e-007
Heightened Def Con from 2.19994e-007 to 2.2001e-007
Heightened Def Con from 2.2001e-007 to 2.2026e-007
Heightened Def Con from 2.20327e-007 to 2.20454e-007
Heightened Def Con from 2.20512e-007 to 2.20638e-007
Heightened Def Con from 2.20638e-007 to 2.20638e-007
Heightened Def Con from 2.20638e-007 to 2.20763e-007
Heightened Def Con from 2.20763e-007 to 2.20763e-007
Heightened Def Con from 2.20763e-007 to 2.2089e-007
Heightened Def Con from 2.2089e-007 to 2.20892e-007
Heightened Def Con from 2.20896e-007 to 2.20896e-007
Heightened Def Con from 2.20896e-007 to 2.20896e-007
Heightened Def Con from 2.20896e-007 to 2.22021e-007
Heightened Def Con from 2.22021e-007 to 2.22023e-007
Heightened Def Con from 2.22023e-007 to 2.22273e-007
Heightened Def Con from 2.22523e-007 to 2.22525e-007
Heightened Def Con from 2.22525e-007 to 2.22526e-007
Heightened Def Con from 2.22526e-007 to 2.22526e-007
Heightened Def Con from 2.22526e-007 to 2.22542e-007
Heightened Def Con from 2.22542e-007 to 2.23544e-007
Heightened Def Con from 2.23544e-007 to 2.23548e-007
Heightened Def Con from 2.23548e-007 to 2.23548e-007
Heightened Def Con from 2.23548e-007 to 2.23552e-007
Heightened Def Con from 2.23552e-007 to 2.23802e-007
Heightened Def Con from 2.23847e-007 to 2.23878e-007
Heightened Def Con from 2.23879e-007 to 2.24879e-007
Heightened Def Con from 2.24879e-007 to 2.25006e-007
Heightened Def Con from 2.25006e-007 to 2.25133e-007
Heightened Def Con from 2.25133e-007 to 2.25135e-007
Heightened Def Con from 2.25135e-007 to 2.25262e-007
Heightened Def Con from 2.25267e-007 to 2.26283e-007
Heightened Def Con from 2.26295e-007 to 2.26295e-007
Heightened Def Con from 2.26295e-007 to 2.26296e-007
Heightened Def Con from 2.26296e-007 to 2.26296e-007
Heightened Def Con from 2.26296e-007 to 2.26298e-007
Heightened Def Con from 2.26302e-007 to 2.26305e-007
Heightened Def Con from 2.26305e-007 to 2.28305e-007
Heightened Def Con from 2.30743e-007 to 2.30743e-007
Heightened Def Con from 2.30743e-007 to 2.30868e-007
Heightened Def Con from 2.30868e-007 to 2.30868e-007
Heightened Def Con from 2.30868e-007 to 2.31884e-007
Heightened Def Con from 2.31915e-007 to 2.31931e-007
Heightened Def Con from 2.31931e-007 to 2.31931e-007
Heightened Def Con from 2.31931e-007 to 2.32947e-007
Heightened Def Con from 2.32978e-007 to 2.32996e-007
Heightened Def Con from 2.32996e-007 to 2.32998e-007
Heightened Def Con from 2.33037e-007 to 2.33164e-007
Heightened Def Con from 2.33168e-007 to 2.35168e-007
Heightened Def Con from 2.35168e-007 to 2.35418e-007
Heightened Def Con from 2.35418e-007 to 2.3542e-007
Heightened Def Con from 2.3542e-007 to 2.3642e-007
Heightened Def Con from 2.3642e-007 to 2.36437e-007
Heightened Def Con from 2.36437e-007 to 2.37437e-007
Heightened Def Con from 2.37466e-007 to 2.39466e-007
Heightened Def Con from 2.39466e-007 to 2.39466e-007
Heightened Def Con from 2.39466e-007 to 2.41466e-007
Heightened Def Con from 2.41466e-007 to 2.41591e-007
Heightened Def Con from 2.41591e-007 to 2.43591e-007
Heightened Def Con from 2.45591e-007 to 2.46591e-007
Heightened Def Con from 2.46591e-007 to 2.47591e-007
Heightened Def Con from 2.47591e-007 to 2.47593e-007
Heightened Def Con from 2.47593e-007 to 2.48593e-007
Heightened Def Con from 2.48593e-007 to 2.48718e-007
Heightened Def Con from 2.48718e-007 to 2.48736e-007
Heightened Def Con from 2.48736e-007 to 2.49861e-007
Heightened Def Con from 2.49861e-007 to 2.49876e-007
Heightened Def Con from 2.49876e-007 to 2.50876e-007
Heightened Def Con from 2.50876e-007 to 2.51876e-007
Heightened Def Con from 2.51876e-007 to 2.53876e-007
Heightened Def Con from 2.53876e-007 to 2.53892e-007
Heightened Def Con from 2.53892e-007 to 2.55892e-007
Heightened Def Con from 2.55892e-007 to 2.56017e-007
Heightened Def Con from 2.56017e-007 to 2.57017e-007
Heightened Def Con from 2.57017e-007 to 2.57142e-007
Heightened Def Con from 2.57142e-007 to 2.58142e-007
Heightened Def Con from 2.58393e-007 to 2.59395e-007
Heightened Def Con from 2.59395e-007 to 2.60395e-007
Heightened Def Con from 2.60395e-007 to 2.61395e-007
Heightened Def Con from 2.61645e-007 to 2.62645e-007
Heightened Def Con from 2.62645e-007 to 2.63645e-007
Heightened Def Con from 2.63645e-007 to 2.6366e-007
Heightened Def Con from 2.6366e-007 to 2.63676e-007
Heightened Def Con from 2.63676e-007 to 2.63801e-007
Heightened Def Con from 2.63801e-007 to 2.64801e-007
Heightened Def Con from 2.64801e-007 to 2.64803e-007
Heightened Def Con from 2.64803e-007 to 2.65803e-007
Heightened Def Con from 2.65806e-007 to 2.65806e-007
Heightened Def Con from 2.65806e-007 to 2.67806e-007
Heightened Def Con from 2.67806e-007 to 2.68806e-007
Heightened Def Con from 2.68806e-007 to 2.69806e-007
Heightened Def Con from 2.69806e-007 to 2.69808e-007
Heightened Def Con from 2.69808e-007 to 2.69823e-007
Heightened Def Con from 2.69823e-007 to 2.69948e-007
Heightened Def Con from 2.69948e-007 to 2.70948e-007
Heightened Def Con from 2.70948e-007 to 2.71075e-007
Heightened Def Con from 2.71075e-007 to 2.72075e-007
Heightened Def Con from 2.72075e-007 to 2.73075e-007
Heightened Def Con from 2.73075e-007 to 2.742e-007
Heightened Def Con from 2.742e-007 to 2.74325e-007
Heightened Def Con from 2.74325e-007 to 2.74326e-007
Heightened Def Con from 2.74326e-007 to 2.74451e-007
Heightened Def Con from 2.74451e-007 to 2.74451e-007
Heightened Def Con from 2.74451e-007 to 2.74453e-007
Heightened Def Con from 2.74453e-007 to 2.74578e-007
Heightened Def Con from 2.74578e-007 to 2.74703e-007
Heightened Def Con from 2.74703e-007 to 2.74718e-007
Heightened Def Con from 2.74718e-007 to 2.74843e-007
Heightened Def Con from 2.74843e-007 to 2.74859e-007
Heightened Def Con from 2.74859e-007 to 2.74861e-007
Heightened Def Con from 2.74861e-007 to 2.74861e-007
Heightened Def Con from 2.74861e-007 +++++to 2.74861e-007
Heightened Def Con from 2.74861e-007 +++++to 2.75861e-007
Heightened Def Con from 2.75861e-007 to 2.75876e-007
Heightened Def Con from 2.75876e-007 +++++to 2.75876e-007
Heightened Def Con from 2.75876e-007 ++++to 2.75877e-007
Heightened Def Con from 2.75877e-007 +to 2.75878e-007
Heightened Def Con from 2.75878e-007 to 2.75894e-007
Heightened Def Con from 2.75894e-007 to 2.75896e-007
Heightened Def Con from 2.75896e-007 to 2.75897e-007
Heightened Def Con from 2.75897e-007 to 2.77022e-007
Heightened Def Con from 2.77022e-007 to 2.77147e-007
Heightened Def Con from 2.77147e-007 to 2.77162e-007
Heightened Def Con from 2.77162e-007 to 2.78162e-007
Heightened Def Con from 2.78193e-007 ++++to 2.78193e-007
Heightened Def Con from 2.78193e-007 +to 2.78193e-007
Heightened Def Con from 2.78193e-007 +++to 2.78444e-007
Heightened Def Con from 2.78444e-007 +++++to 2.79444e-007
Heightened Def Con from 2.79444e-007 to 2.80444e-007
Heightened Def Con from 2.80444e-007 to 2.80444e-007
Heightened Def Con from 2.80444e-007 to 2.80444e-007
Heightened Def Con from 2.80444e-007 to 2.81444e-007
Heightened Def Con from 2.81444e-007 to 2.82444e-007
Heightened Def Con from 2.82444e-007 to 2.82446e-007
Heightened Def Con from 2.82446e-007 to 2.82446e-007
Heightened Def Con from 2.82446e-007 +to 2.83446e-007
Heightened Def Con from 2.83446e-007 +to 2.83446e-007
Heightened Def Con from 2.83446e-007 to 2.83446e-007
Heightened Def Con from 2.83446e-007 +to 2.84446e-007
Heightened Def Con from 2.84446e-007 to 2.85446e-007
Heightened Def Con from 2.85446e-007 +to 2.85571e-007
Heightened Def Con from 2.85571e-007 to 2.85586e-007
Heightened Def Con from 2.85586e-007 to 2.85586e-007
Heightened Def Con from 2.85586e-007 to 2.85586e-007
Heightened Def Con from 2.85586e-007 to 2.85586e-007
Heightened Def Con from 2.85586e-007 +++++to 2.85586e-007
Heightened Def Con from 2.85586e-007 ++++to 2.85711e-007
Heightened Def Con from 2.85711e-007 to 2.85711e-007
Heightened Def Con from 2.85711e-007 to 2.85712e-007
Heightened Def Con from 2.85712e-007 to 2.85712e-007
Heightened Def Con from 2.85712e-007 to 2.85712e-007
Heightened Def Con from 2.85712e-007 +to 2.86712e-007
Heightened Def Con from 2.86712e-007 to 2.86713e-007
Heightened Def Con from 2.86713e-007 to 2.86714e-007
Heightened Def Con from 2.86714e-007 +to 2.87714e-007
Heightened Def Con from 2.87714e-007 to 2.87729e-007
Heightened Def Con from 2.87729e-007 to 2.87729e-007
Heightened Def Con from 2.87729e-007 to 2.88854e-007
Heightened Def Con from 2.88854e-007 to 2.88854e-007
Heightened Def Con from 2.88854e-007 to 2.88855e-007
Heightened Def Con from 2.88855e-007 to 2.8898e-007
Heightened Def Con from 2.8898e-007 to 2.89105e-007
Heightened Def Con from 2.89105e-007 ++++++to 2.8912e-007
Heightened Def Con from 2.8912e-007 +to 2.89122e-007
Heightened Def Con from 2.89122e-007 to 2.89124e-007
Heightened Def Con from 2.89124e-007 +to 2.89249e-007
Heightened Def Con from 2.89249e-007 to 2.89249e-007
Heightened Def Con from 2.89249e-007 +to 2.89374e-007
Heightened Def Con from 2.89374e-007 to 2.89374e-007
Heightened Def Con from 2.89374e-007 +to 2.8939e-007
Heightened Def Con from 2.8939e-007 +to 2.9039e-007
Heightened Def Con from 2.9039e-007 +to 2.90406e-007
Heightened Def Con from 2.90406e-007 +to 2.90406e-007
Heightened Def Con from 2.90406e-007 +to 2.90531e-007
Heightened Def Con from 2.90531e-007 +to 2.90533e-007
Heightened Def Con from 2.90533e-007 to 2.90533e-007
Heightened Def Con from 2.90533e-007 to 2.91533e-007
Heightened Def Con from 2.91533e-007 to 2.91658e-007
Heightened Def Con from 2.91658e-007 +to 2.9166e-007
Heightened Def Con from 2.9166e-007 +to 2.9266e-007
Heightened Def Con from 2.9266e-007 +to 2.9266e-007
Heightened Def Con from 2.9266e-007 +to 2.9266e-007
Heightened Def Con from 2.9266e-007 +to 2.9366e-007
Heightened Def Con from 2.9366e-007 +to 2.93785e-007
Heightened Def Con from 2.93785e-007 +to 2.93787e-007
Heightened Def Con from 2.93787e-007 to 2.93787e-007
Heightened Def Con from 2.93787e-007 +to 2.93787e-007
Heightened Def Con from 2.93787e-007 +to 2.93912e-007
Heightened Def Con from 2.93912e-007 +to 2.94912e-007
Heightened Def Con from 2.94912e-007 +to 2.94928e-007
Heightened Def Con from 2.94928e-007 +to 2.95928e-007
Heightened Def Con from 2.95928e-007 to 2.96053e-007
Heightened Def Con from 2.96053e-007 +to 2.97053e-007
Heightened Def Con from 2.97053e-007 to 2.97053e-007
Heightened Def Con from 2.97053e-007 to 2.98053e-007
Heightened Def Con from 2.98053e-007 to 2.98178e-007
Heightened Def Con from 2.98178e-007 +to 2.98178e-007
Heightened Def Con from 2.98178e-007 +to 2.98303e-007
Heightened Def Con from 2.98303e-007 to 2.98428e-007
Heightened Def Con from 2.98428e-007 +to 2.98553e-007
Heightened Def Con from 2.98553e-007 +to 2.99553e-007
Heightened Def Con from 2.99553e-007 +to 3.00553e-007
Heightened Def Con from 3.00553e-007 +to 3.00568e-007
Heightened Def Con from 3.00568e-007 +to 3.0057e-007
Heightened Def Con from 3.0057e-007 to 3.0057e-007
Heightened Def Con from 3.0057e-007 +to 3.01695e-007
Heightened Def Con from 3.01699e-007 +to 3.01699e-007
Heightened Def Con from 3.01699e-007 +to 3.01701e-007
Heightened Def Con from 3.01701e-007 to 3.01951e-007
Heightened Def Con from 3.01951e-007 +to 3.02076e-007
Heightened Def Con from 3.02076e-007 to 3.02092e-007
Heightened Def Con from 3.02092e-007 +to 3.02217e-007
Heightened Def Con from 3.02217e-007 +to 3.03217e-007
Heightened Def Con from 3.03217e-007 +to 3.04217e-007
Heightened Def Con from 3.04217e-007 +to 3.05217e-007
Heightened Def Con from 3.05217e-007 +to 3.06217e-007
Heightened Def Con from 3.06217e-007 +to 3.07217e-007
Heightened Def Con from 3.07217e-007 +to 3.07342e-007
Heightened Def Con from 3.07342e-007 to 3.07467e-007
Heightened Def Con from 3.07467e-007 +to 3.07592e-007
Heightened Def Con from 3.07592e-007 to 3.07592e-007
Heightened Def Con from 3.07592e-007 +++++++to 3.08592e-007
Heightened Def Con from 3.08592e-007 +to 3.09592e-007
Heightened Def Con from 3.09592e-007 to 3.09717e-007
Heightened Def Con from 3.09717e-007 +to 3.09842e-007
Heightened Def Con from 3.09842e-007 +to 3.10842e-007
Heightened Def Con from 3.10842e-007 +to 3.11842e-007
Heightened Def Con from 3.11842e-007 +to 3.11858e-007
Heightened Def Con from 3.11858e-007 +to 3.12858e-007
Heightened Def Con from 3.12858e-007 +to 3.13858e-007
Heightened Def Con from 3.13858e-007 +to 3.13858e-007
Heightened Def Con from 3.13858e-007 +to 3.13983e-007
Heightened Def Con from 3.13983e-007 +to 3.14983e-007
Heightened Def Con from 3.14983e-007 +to 3.15108e-007
Heightened Def Con from 3.15108e-007 +to 3.16108e-007
Heightened Def Con from 3.16108e-007 +to 3.16233e-007
Heightened Def Con from 3.16233e-007 to 3.16233e-007
Heightened Def Con from 3.16233e-007 +to 3.16358e-007
Heightened Def Con from 3.16358e-007 to 3.1636e-007
Heightened Def Con from 3.1636e-007 +to 3.1736e-007
Heightened Def Con from 3.1736e-007 +to 3.1836e-007
Heightened Def Con from 3.1861e-007 to 3.1861e-007
Heightened Def Con from 3.1861e-007 +to 3.1961e-007
Heightened Def Con from 3.1961e-007 to 3.1961e-007
Heightened Def Con from 3.1961e-007 +to 3.19735e-007
Heightened Def Con from 3.19735e-007 +to 3.20735e-007
Heightened Def Con from 3.20735e-007 +to 3.21735e-007
Heightened Def Con from 3.21735e-007 +to 3.2175e-007
Heightened Def Con from 3.2175e-007 +to 3.2275e-007
Heightened Def Con from 3.2275e-007 +to 3.2375e-007
Heightened Def Con from 3.2375e-007 +to 3.2375e-007
Heightened Def Con from 3.2375e-007 +to 3.23875e-007
Heightened Def Con from 3.23875e-007 +to 3.23877e-007
Heightened Def Con from 3.23877e-007 to 3.23877e-007
Heightened Def Con from 3.23877e-007 +to 3.24877e-007
Heightened Def Con from 3.24877e-007 +to 3.25877e-007
Heightened Def Con from 3.25877e-007 +to 3.26002e-007
Heightened Def Con from 3.26002e-007 to 3.26127e-007
Heightened Def Con from 3.26131e-007 +to 3.26256e-007
Heightened Def Con from 3.26256e-007 +to 3.26272e-007
Heightened Def Con from 3.26272e-007 +to 3.26272e-007
Heightened Def Con from 3.26272e-007 to 3.26272e-007
Heightened Def Con from 3.26272e-007 ++to 3.26272e-007
Heightened Def Con from 3.26272e-007 +++++++to 3.27272e-007
Heightened Def Con from 3.27272e-007 +++++++to 3.27397e-007
Heightened Def Con from 3.27397e-007 +to 3.27399e-007
Heightened Def Con from 3.27399e-007 +++++to 3.27399e-007
Heightened Def Con from 3.27399e-007 +to 3.28399e-007
Heightened Def Con from 3.28399e-007 +to 3.28399e-007
Heightened Def Con from 3.28399e-007 +to 3.28399e-007
Heightened Def Con from 3.28399e-007 +to 3.28401e-007
Heightened Def Con from 3.28401e-007 +to 3.28526e-007
Heightened Def Con from 3.28526e-007 to 3.28651e-007
Heightened Def Con from 3.28651e-007 ++to 3.28653e-007
Heightened Def Con from 3.28653e-007 ++to 3.28653e-007
Heightened Def Con from 3.28653e-007 +to 3.28653e-007
Heightened Def Con from 3.28653e-007 +to 3.28778e-007
Heightened Def Con from 3.28778e-007 +to 3.28903e-007
Heightened Def Con from 3.28903e-007 to 3.28903e-007
Heightened Def Con from 3.28903e-007 ++++++to 3.28903e-007
Heightened Def Con from 3.28903e-007 +to 3.28903e-007
Heightened Def Con from 3.28903e-007 ++++++to 3.28903e-007
Heightened Def Con from 3.28903e-007 +to 3.28903e-007
Heightened Def Con from 3.28903e-007 +to 3.28905e-007
Heightened Def Con from 3.28905e-007 +to 3.29905e-007
Heightened Def Con from 3.29905e-007 +to 3.3003e-007
Heightened Def Con from 3.3003e-007 +++++++to 3.3003e-007
Heightened Def Con from 3.3003e-007 ++++++to 3.3003e-007
Heightened Def Con from 3.3003e-007 +++++to 3.3003e-007
Heightened Def Con from 3.3003e-007 +to 3.30155e-007
Heightened Def Con from 3.30155e-007 ++to 3.3128e-007
Heightened Def Con from 3.3128e-007 to 3.3228e-007
Heightened Def Con from 3.3228e-007 +to 3.3228e-007
Heightened Def Con from 3.3228e-007 +to 3.32296e-007
Heightened Def Con from 3.32296e-007 +to 3.32298e-007
Heightened Def Con from 3.32298e-007 ++to 3.32298e-007
Heightened Def Con from 3.32298e-007 +++to 3.32298e-007
Heightened Def Con from 3.32298e-007 ++++++++++to 3.32423e-007
Heightened Def Con from 3.32423e-007 ++++++to 3.32423e-007
Heightened Def Con from 3.32423e-007 ++to 3.32439e-007
Heightened Def Con from 3.32439e-007 +to 3.32564e-007
Heightened Def Con from 3.32564e-007 ++++++++to 3.32564e-007
Heightened Def Con from 3.32564e-007 +++++++to 3.32689e-007
Heightened Def Con from 3.32689e-007 +to 3.32689e-007
Heightened Def Con from 3.32689e-007 +++++to 3.32689e-007
Heightened Def Con from 3.32689e-007 ++to 3.32689e-007
Heightened Def Con from 3.32689e-007 ++++to 3.32689e-007
Heightened Def Con from 3.32689e-007 +++++++to 3.32689e-007
Heightened Def Con from 3.32689e-007 ++++++++to 3.32814e-007
Heightened Def Con from 3.32814e-007 ++to 3.33814e-007
Heightened Def Con from 3.33814e-007 +to 3.33939e-007
Heightened Def Con from 3.33939e-007 +to 3.33955e-007
Heightened Def Con from 3.33955e-007 ++to 3.3408e-007
Heightened Def Con from 3.3408e-007 ++to 3.34095e-007
Heightened Def Con from 3.34095e-007 +to 3.34095e-007
Heightened Def Con from 3.34095e-007 ++++++to 3.34096e-007
Heightened Def Con from 3.34096e-007 ++++++++to 3.34096e-007
Heightened Def Con from 3.34096e-007 ++to 3.34221e-007
Heightened Def Con from 3.34221e-007 +to 3.34346e-007
Heightened Def Con from 3.34346e-007 +++to 3.34346e-007
Heightened Def Con from 3.34346e-007 +to 3.34471e-007
Heightened Def Con from 3.34471e-007 +to 3.34473e-007
Heightened Def Con from 3.34473e-007 +to 3.35473e-007
Heightened Def Con from 3.35473e-007 +to 3.35489e-007
Heightened Def Con from 3.35489e-007 ++to 3.35489e-007
Heightened Def Con from 3.35489e-007 ++to 3.35629e-007
Heightened Def Con from 3.35629e-007 ++to 3.35754e-007
Heightened Def Con from 3.35754e-007 ++++++++to 3.35755e-007
Heightened Def Con from 3.35755e-007 ++++++++to 3.35755e-007
Heightened Def Con from 3.35755e-007 +to 3.35755e-007
Heightened Def Con from 3.35755e-007 ++++to 3.3577e-007
Heightened Def Con from 3.3577e-007 +to 3.35895e-007
Heightened Def Con from 3.35895e-007 ++to 3.35895e-007
Heightened Def Con from 3.35895e-007 ++to 3.35895e-007
Heightened Def Con from 3.35895e-007 ++++++++to 3.35897e-007
Heightened Def Con from 3.35897e-007 +to 3.35897e-007
Heightened Def Con from 3.35897e-007 +to 3.36022e-007
Heightened Def Con from 3.36022e-007 +++++++to 3.36147e-007
Heightened Def Con from 3.36147e-007 ++to 3.36147e-007
Heightened Def Con from 3.36147e-007 ++++++to 3.36147e-007
Heightened Def Con from 3.36147e-007 +to 3.36147e-007
Heightened Def Con from 3.36147e-007 +to 3.36272e-007
Heightened Def Con from 3.36272e-007 +to 3.36288e-007
Heightened Def Con from 3.36288e-007 +++++++++to 3.37288e-007
Heightened Def Con from 3.37288e-007 ++to 3.37413e-007
Heightened Def Con from 3.37413e-007 to 3.37415e-007
Heightened Def Con from 3.37415e-007 +to 3.37417e-007
Heightened Def Con from 3.37417e-007 ++to 3.38417e-007
Heightened Def Con from 3.38417e-007 ++to 3.38419e-007
Heightened Def Con from 3.38419e-007 ++to 3.38419e-007
Heightened Def Con from 3.38419e-007 ++++++++to 3.38434e-007
Heightened Def Con from 3.38434e-007 ++to 3.39434e-007
Heightened Def Con from 3.39434e-007 to 3.39559e-007
Heightened Def Con from 3.39559e-007 +++++++to 3.39559e-007
Heightened Def Con from 3.39559e-007 ++++++to 3.39559e-007
Heightened Def Con from 3.39559e-007 +to 3.39559e-007
Heightened Def Con from 3.39559e-007 ++to 3.40559e-007
Heightened Def Con from 3.40559e-007 +to 3.40559e-007
Heightened Def Con from 3.40559e-007 +++++++to 3.40559e-007
Heightened Def Con from 3.40559e-007 +++++++to 3.41559e-007
Heightened Def Con from 3.41559e-007 +++++++to 3.41559e-007
Heightened Def Con from 3.41559e-007 +++to 3.41559e-007
Heightened Def Con from 3.41559e-007 +to 3.41684e-007
Heightened Def Con from 3.41684e-007 +to 3.41686e-007
Heightened Def Con from 3.41686e-007 +++++++to 3.41686e-007
Heightened Def Con from 3.41686e-007 +++++++to 3.41687e-007
Heightened Def Con from 3.41687e-007 ++to 3.41689e-007
Heightened Def Con from 3.41689e-007 +to 3.41691e-007
Heightened Def Con from 3.41691e-007 +to 3.41706e-007
Heightened Def Con from 3.41706e-007 +to 3.42706e-007
Heightened Def Con from 3.42706e-007 ++to 3.42706e-007
Heightened Def Con from 3.42706e-007 ++to 3.43706e-007
Heightened Def Con from 3.43706e-007 to 3.43706e-007
Heightened Def Con from 3.43706e-007 ++++++++to 3.43706e-007
Heightened Def Con from 3.43706e-007 +to 3.43706e-007
Heightened Def Con from 3.43706e-007 ++++++++to 3.43706e-007
Heightened Def Con from 3.43706e-007 ++to 3.43708e-007
Heightened Def Con from 3.43708e-007 ++to 3.4371e-007
Heightened Def Con from 3.4371e-007 ++++++++to 3.4371e-007
Heightened Def Con from 3.4371e-007 ++++++to 3.4371e-007
Heightened Def Con from 3.4371e-007 +to 3.4371e-007
Heightened Def Con from 3.4371e-007 +to 3.43726e-007
Heightened Def Con from 3.43726e-007 +to 3.43728e-007
Heightened Def Con from 3.43728e-007 ++++++++to 3.43728e-007
Heightened Def Con from 3.43728e-007 ++to 3.43728e-007
Heightened Def Con from 3.43728e-007 ++++++to 3.43744e-007
Heightened Def Con from 3.43744e-007 +++++to 3.43744e-007
Heightened Def Con from 3.43744e-007 ++to 3.43744e-007
Heightened Def Con from 3.43744e-007 ++to 3.43759e-007
Heightened Def Con from 3.43759e-007 +to 3.43761e-007
Heightened Def Con from 3.43761e-007 ++++++++to 3.43763e-007
Heightened Def Con from 3.43763e-007 ++to 3.43888e-007
Heightened Def Con from 3.43888e-007 ++++++to 3.43888e-007
Heightened Def Con from 3.43888e-007 +++++++to 3.43888e-007
Heightened Def Con from 3.43888e-007 ++to 3.44013e-007
Heightened Def Con from 3.44013e-007 ++to 3.44013e-007
Heightened Def Con from 3.44013e-007 +to 3.44013e-007
Heightened Def Con from 3.44013e-007 ++to 3.45013e-007
Heightened Def Con from 3.45013e-007 ++to 3.45013e-007
Heightened Def Con from 3.45013e-007 ++to 3.45015e-007
Heightened Def Con from 3.45015e-007 +to 3.45015e-007
Heightened Def Con from 3.45015e-007 +++++++to 3.46015e-007
Heightened Def Con from 3.46015e-007 ++to 3.4614e-007
Heightened Def Con from 3.4614e-007 +++++++to 3.4614e-007
Heightened Def Con from 3.4614e-007 +++to 3.46141e-007
Heightened Def Con from 3.46141e-007 +++++++to 3.46141e-007
Heightened Def Con from 3.46141e-007 +++++to 3.46141e-007
Heightened Def Con from 3.46141e-007 ++to 3.46141e-007
Heightened Def Con from 3.46141e-007 +++to 3.46141e-007
Heightened Def Con from 3.46141e-007 +++to 3.46141e-007
Heightened Def Con from 3.46141e-007 ++++to 3.46141e-007
Heightened Def Con from 3.46141e-007 +++++++to 3.46141e-007
Heightened Def Con from 3.46141e-007 +++to 3.46141e-007
Heightened Def Con from 3.46141e-007 ++to 3.46143e-007
Heightened Def Con from 3.46143e-007 ++to 3.46268e-007
Heightened Def Con from 3.46518e-007 ++to 3.46519e-007
Heightened Def Con from 3.46519e-007 +to 3.46519e-007
Heightened Def Con from 3.46519e-007 ++++++to 3.47519e-007
Heightened Def Con from 3.47519e-007 ++++++to 3.47644e-007
Heightened Def Con from 3.47644e-007 +++++++to 3.47644e-007
Heightened Def Con from 3.47644e-007 +++++++to 3.48644e-007
Heightened Def Con from 3.48644e-007 ++to 3.48769e-007
Heightened Def Con from 3.48769e-007 ++to 3.48894e-007
Heightened Def Con from 3.48894e-007 ++to 3.49019e-007
Heightened Def Con from 3.49019e-007 +++++++++to 3.49021e-007
Heightened Def Con from 3.49021e-007 +++++++to 3.49021e-007
Heightened Def Con from 3.49021e-007 +++++++to 3.50021e-007
Heightened Def Con from 3.50021e-007 ++++++++to 3.50036e-007
Heightened Def Con from 3.50036e-007 +++++++to 3.50036e-007
Heightened Def Con from 3.50036e-007 ++++++to 3.50036e-007
Heightened Def Con from 3.50036e-007 ++to 3.50161e-007
Heightened Def Con from 3.50161e-007 +++++++++to 3.50162e-007
Heightened Def Con from 3.50162e-007 +to 3.50162e-007
Heightened Def Con from 3.50162e-007 +++to 3.51162e-007
Heightened Def Con from 3.51162e-007 ++to 3.51177e-007
Heightened Def Con from 3.51177e-007 ++to 3.51302e-007
Heightened Def Con from 3.51302e-007 ++to 3.52302e-007
Heightened Def Con from 3.52302e-007 ++to 3.53302e-007
Heightened Def Con from 3.53302e-007 to 3.53304e-007
Heightened Def Con from 3.53304e-007 ++to 3.53429e-007
Heightened Def Con from 3.53429e-007 ++to 3.53554e-007
Heightened Def Con from 3.53554e-007 to 3.53554e-007
Heightened Def Con from 3.53554e-007 ++to 3.53554e-007
Heightened Def Con from 3.53554e-007 ++to 3.54554e-007
Heightened Def Con from 3.54554e-007 ++to 3.54554e-007
Heightened Def Con from 3.54554e-007 to 3.54554e-007
Heightened Def Con from 3.54554e-007 +to 3.54679e-007
Heightened Def Con from 3.54679e-007 ++to 3.55679e-007
Heightened Def Con from 3.55679e-007 ++to 3.55804e-007
Heightened Def Con from 3.55804e-007 to 3.55804e-007
Heightened Def Con from 3.55804e-007 ++to 3.56804e-007
Heightened Def Con from 3.56804e-007 ++to 3.56804e-007
Heightened Def Con from 3.56804e-007 ++to 3.56929e-007
Heightened Def Con from 3.56929e-007 ++to 3.56945e-007
Heightened Def Con from 3.56945e-007 ++to 3.5696e-007
Heightened Def Con from 3.5696e-007 ++to 3.57085e-007
Heightened Def Con from 3.57085e-007 +to 3.57085e-007
Heightened Def Con from 3.57085e-007 ++to 3.5721e-007
Heightened Def Con from 3.5721e-007 ++to 3.5721e-007
Heightened Def Con from 3.5721e-007 ++to 3.57226e-007
Heightened Def Con from 3.57226e-007 ++to 3.57242e-007
Heightened Def Con from 3.57242e-007 +to 3.57242e-007
Heightened Def Con from 3.57242e-007 +++++++to 3.57242e-007
Heightened Def Con from 3.57242e-007 ++to 3.57367e-007
Heightened Def Con from 3.57367e-007 +++to 3.57367e-007
Heightened Def Con from 3.57367e-007 +to 3.58367e-007
Heightened Def Con from 3.58367e-007 ++to 3.58383e-007
Heightened Def Con from 3.58383e-007 ++to 3.59383e-007
Heightened Def Con from 3.59383e-007 ++to 3.59398e-007
Heightened Def Con from 3.59398e-007 to 3.60398e-007
Heightened Def Con from 3.60398e-007 ++to 3.61398e-007
Heightened Def Con from 3.61398e-007 ++to 3.61398e-007
Heightened Def Con from 3.61398e-007 ++to 3.61398e-007
Heightened Def Con from 3.61398e-007 ++to 3.62398e-007
Heightened Def Con from 3.62398e-007 ++to 3.63398e-007
Heightened Def Con from 3.63398e-007 ++to 3.64398e-007
Heightened Def Con from 3.64398e-007 ++to 3.65398e-007
Heightened Def Con from 3.65398e-007 ++to 3.654e-007
Heightened Def Con from 3.654e-007 ++to 3.65525e-007
Heightened Def Con from 3.65525e-007 ++to 3.6565e-007
Heightened Def Con from 3.6565e-007 ++to 3.65652e-007
Heightened Def Con from 3.65652e-007 ++to 3.65668e-007
Heightened Def Con from 3.65668e-007 ++to 3.65793e-007
Heightened Def Con from 3.65793e-007 +to 3.65793e-007
Heightened Def Con from 3.65793e-007 ++to 3.66918e-007
Heightened Def Con from 3.66918e-007 +++++++to 3.66918e-007
Heightened Def Con from 3.66918e-007 ++to 3.67043e-007
Heightened Def Con from 3.67043e-007 ++to 3.68043e-007
Heightened Def Con from 3.68043e-007 to 3.68058e-007
Heightened Def Con from 3.68058e-007 ++to 3.68058e-007
Heightened Def Con from 3.68058e-007 ++to 3.69058e-007
Heightened Def Con from 3.69058e-007 ++to 3.69183e-007
Heightened Def Con from 3.69183e-007 ++to 3.70183e-007
Heightened Def Con from 3.70183e-007 ++to 3.70308e-007
Heightened Def Con from 3.70308e-007 ++to 3.71308e-007
Heightened Def Con from 3.71308e-007 to 3.71308e-007
Heightened Def Con from 3.71308e-007 ++to 3.71433e-007
Heightened Def Con from 3.71433e-007 ++++++++to 3.71434e-007
Heightened Def Con from 3.71434e-007 +++++++++to 3.71434e-007
Heightened Def Con from 3.71434e-007 ++to 3.71434e-007
Heightened Def Con from 3.71434e-007 ++to 3.71449e-007
Heightened Def Con from 3.71449e-007 ++to 3.71449e-007
Heightened Def Con from 3.71449e-007 ++to 3.71574e-007
Heightened Def Con from 3.71574e-007 ++to 3.71576e-007
Heightened Def Con from 3.71576e-007 ++to 3.71701e-007
Heightened Def Con from 3.71701e-007 ++to 3.72701e-007
Heightened Def Con from 3.72701e-007 ++to 3.72701e-007
Heightened Def Con from 3.72701e-007 ++to 3.72701e-007
Heightened Def Con from 3.72701e-007 ++to 3.72826e-007
Heightened Def Con from 3.72826e-007 to 3.73826e-007
Heightened Def Con from 3.73826e-007 ++to 3.74826e-007
Heightened Def Con from 3.74826e-007 +++++to 3.74826e-007
Heightened Def Con from 3.74826e-007 ++to 3.74951e-007
Heightened Def Con from 3.74951e-007 +++++++++to 3.74953e-007
Heightened Def Con from 3.74953e-007 ++++++++to 3.74953e-007
Heightened Def Con from 3.74953e-007 ++++++++to 3.74953e-007
Heightened Def Con from 3.74953e-007 +++++to 3.74953e-007
Heightened Def Con from 3.74953e-007 ++++++to 3.74953e-007
Heightened Def Con from 3.74953e-007 ++++++++to 3.74953e-007
Heightened Def Con from 3.74953e-007 ++++++++to 3.74969e-007
Heightened Def Con from 3.74969e-007 ++++++++to 3.74969e-007
Heightened Def Con from 3.74969e-007 ++to 3.74969e-007
Heightened Def Con from 3.74969e-007 ++to 3.74969e-007
Heightened Def Con from 3.74969e-007 ++++++++to 3.74969e-007
Heightened Def Con from 3.74969e-007 +++++++to 3.74969e-007
Heightened Def Con from 3.74969e-007 ++++to 3.74969e-007
Heightened Def Con from 3.74969e-007 to 3.74969e-007
Heightened Def Con from 3.74969e-007 +++++++to 3.74971e-007
Heightened Def Con from 3.74971e-007 +++to 3.74971e-007
Heightened Def Con from 3.74971e-007 +++to 3.74987e-007
Heightened Def Con from 3.74987e-007 ++to 3.75112e-007
Heightened Def Con from 3.75112e-007 ++to 3.76112e-007
Heightened Def Con from 3.76112e-007 ++to 3.76237e-007
Heightened Def Con from 3.76237e-007 ++++++++to 3.76237e-007
Heightened Def Con from 3.76237e-007 +++to 3.76237e-007
Heightened Def Con from 3.76237e-007 ++to 3.76237e-007
Heightened Def Con from 3.76237e-007 +++++++to 3.76237e-007
Heightened Def Con from 3.76237e-007 +++++++to 3.76237e-007
Heightened Def Con from 3.76237e-007 ++to 3.77237e-007
Heightened Def Con from 3.77237e-007 ++to 3.77362e-007
Heightened Def Con from 3.77366e-007 +++++++to 3.77366e-007
Heightened Def Con from 3.77366e-007 +++++++to 3.77491e-007
Heightened Def Con from 3.77491e-007 ++to 3.78491e-007
Heightened Def Con from 3.78491e-007 to 3.78491e-007
Heightened Def Con from 3.78491e-007 +to 3.78491e-007
Heightened Def Con from 3.78491e-007 +++to 3.78491e-007
Heightened Def Con from 3.78491e-007 +++++++to 3.78491e-007
Heightened Def Con from 3.78491e-007 +++++++++to 3.79491e-007
Heightened Def Con from 3.79491e-007 +++++++to 3.79507e-007
Heightened Def Con from 3.79507e-007 +++to 3.79632e-007
Heightened Def Con from 3.79632e-007 ++++to 3.79632e-007
Heightened Def Con from 3.79632e-007 +to 3.79632e-007
Heightened Def Con from 3.79632e-007 ++to 3.80632e-007
Heightened Def Con from 3.80632e-007 to 3.80632e-007
Heightened Def Con from 3.80632e-007 +to 3.80632e-007
Heightened Def Con from 3.80632e-007 +to 3.80757e-007
Heightened Def Con from 3.80757e-007 ++to 3.81757e-007
Heightened Def Con from 3.81757e-007 ++++++to 3.81882e-007
Heightened Def Con from 3.81882e-007 +++++++++to 3.81882e-007
Heightened Def Con from 3.81882e-007 +++++++++to 3.81884e-007
Heightened Def Con from 3.81884e-007 +++++++to 3.81884e-007
Heightened Def Con from 3.81884e-007 +++++++++to 3.82009e-007
Heightened Def Con from 3.82009e-007 +to 3.82009e-007
Heightened Def Con from 3.82009e-007 ++++++to 3.82009e-007
Heightened Def Con from 3.82009e-007 +++to 3.82027e-007
Heightened Def Con from 3.82027e-007 +++++++++to 3.82027e-007
Heightened Def Con from 3.82027e-007 ++++++++to 3.82027e-007
Heightened Def Con from 3.82027e-007 +++++++to 3.82027e-007
Heightened Def Con from 3.82027e-007 ++++++to 3.82027e-007
Heightened Def Con from 3.82027e-007 +++++++to 3.82027e-007
Heightened Def Con from 3.82027e-007 +++++to 3.82152e-007
Heightened Def Con from 3.82152e-007 ++++++++to 3.82152e-007
Heightened Def Con from 3.82152e-007 ++++++to 3.82152e-007
Heightened Def Con from 3.82152e-007 ++to 3.82277e-007
Heightened Def Con from 3.82277e-007 ++to 3.82402e-007
Heightened Def Con from 3.82402e-007 +++++to 3.82402e-007
Heightened Def Con from 3.82402e-007 +++++++++to 3.82402e-007
Heightened Def Con from 3.82402e-007 ++++++++to 3.82402e-007
Heightened Def Con from 3.82402e-007 ++++++++to 3.82402e-007
Heightened Def Con from 3.82402e-007 +++++++to 3.82402e-007
Heightened Def Con from 3.82402e-007 ++to 3.82527e-007
Heightened Def Con from 3.82527e-007 ++to 3.82652e-007
Heightened Def Con from 3.82652e-007 +++++to 3.82652e-007
Heightened Def Con from 3.82652e-007 ++++++++to 3.82652e-007
Heightened Def Con from 3.82652e-007 ++++++++to 3.82902e-007
Heightened Def Con from 3.82902e-007 +++++++to 3.82902e-007
Heightened Def Con from 3.82902e-007 +to 3.82903e-007
Heightened Def Con from 3.82903e-007 +++++++to 3.83028e-007
Heightened Def Con from 3.83028e-007 +++++++++to 3.83028e-007
Heightened Def Con from 3.83028e-007 +++++++++to 3.83028e-007
Heightened Def Con from 3.83028e-007 ++to 3.83153e-007
Heightened Def Con from 3.83153e-007 to 3.83153e-007
Heightened Def Con from 3.83153e-007 ++to 3.83153e-007
Heightened Def Con from 3.83153e-007 ++to 3.83153e-007
Heightened Def Con from 3.83153e-007 ++to 3.83153e-007
Heightened Def Con from 3.83153e-007 ++to 3.83153e-007
Heightened Def Con from 3.83153e-007 +++++++to 3.83153e-007
Heightened Def Con from 3.83153e-007 ++++++++to 3.83153e-007
Heightened Def Con from 3.83153e-007 ++++++++to 3.83153e-007
Heightened Def Con from 3.83153e-007 +++++++to 3.83153e-007
Heightened Def Con from 3.83153e-007 +++++++++to 3.83153e-007
Heightened Def Con from 3.83153e-007 ++++++++to 3.83153e-007
Heightened Def Con from 3.83153e-007 ++++++++to 3.83153e-007
Heightened Def Con from 3.83153e-007 +++++to 3.83153e-007
Heightened Def Con from 3.83153e-007 +++to 3.84153e-007
Heightened Def Con from 3.84153e-007 +++++++to 3.84155e-007
Heightened Def Con from 3.84155e-007 ++++++to 3.84155e-007
Heightened Def Con from 3.84155e-007 +++++++++to 3.84155e-007
Heightened Def Con from 3.84155e-007 +++++++++to 3.84171e-007
Heightened Def Con from 3.84171e-007 +++++to 3.84171e-007
Heightened Def Con from 3.84171e-007 +++++++to 3.84187e-007
Heightened Def Con from 3.84187e-007 +++++++to 3.84187e-007
Heightened Def Con from 3.84187e-007 +++++++to 3.84187e-007
Heightened Def Con from 3.84187e-007 +++++to 3.84187e-007
Heightened Def Con from 3.84187e-007 +++++++to 3.84187e-007
Heightened Def Con from 3.84187e-007 +++++++to 3.84187e-007
Heightened Def Con from 3.84187e-007 +++++++to 3.84189e-007
Heightened Def Con from 3.84189e-007 ++to 3.84189e-007
Heightened Def Con from 3.84189e-007 +to 3.84189e-007
Heightened Def Con from 3.84189e-007 +++to 3.84314e-007
Heightened Def Con from 3.84314e-007 +to 3.85314e-007
Heightened Def Con from 3.85314e-007 ++to 3.86314e-007
Heightened Def Con from 3.86345e-007 to 3.86345e-007
Heightened Def Con from 3.86345e-007 ++++++++to 3.86345e-007
Heightened Def Con from 3.86345e-007 +++++++++to 3.8647e-007
Heightened Def Con from 3.8647e-007 ++++++++to 3.8647e-007
Heightened Def Con from 3.8647e-007 +++++++to 3.86471e-007
Heightened Def Con from 3.86471e-007 ++++++to 3.86475e-007
Heightened Def Con from 3.86475e-007 ++to 3.86477e-007
Heightened Def Con from 3.86477e-007 +++to 3.86602e-007
Heightened Def Con from 3.86602e-007 +++to 3.86602e-007
Heightened Def Con from 3.86602e-007 +++++++to 3.86602e-007
Heightened Def Con from 3.86602e-007 ++++++++to 3.86602e-007
Heightened Def Con from 3.86602e-007 ++++++to 3.86602e-007
Heightened Def Con from 3.86602e-007 +++++++to 3.86727e-007
Heightened Def Con from 3.86727e-007 +++++++++to 3.86854e-007
Heightened Def Con from 3.86854e-007 ++++++++++to 3.87854e-007
Heightened Def Con from 3.87854e-007 +++++++to 3.87854e-007
Heightened Def Con from 3.87854e-007 +++++++to 3.88854e-007
Heightened Def Con from 3.88854e-007 +++++++to 3.88854e-007
Heightened Def Con from 3.88854e-007 +++to 3.88979e-007
Heightened Def Con from 3.88979e-007 ++to 3.89104e-007
Heightened Def Con from 3.89104e-007 +++++++to 3.89104e-007
Heightened Def Con from 3.89104e-007 to 3.89104e-007
Heightened Def Con from 3.89104e-007 ++++++++to 3.89104e-007
Heightened Def Con from 3.89104e-007 +to 3.89104e-007
Heightened Def Con from 3.89104e-007 ++to 3.89229e-007
Heightened Def Con from 3.89229e-007 +++++++++to 3.89229e-007
Heightened Def Con from 3.89229e-007 +++++++to 3.89229e-007
Heightened Def Con from 3.89229e-007 ++++++++to 3.90229e-007
Heightened Def Con from 3.90229e-007 +to 3.90229e-007
Heightened Def Con from 3.90229e-007 +++to 3.90356e-007
Heightened Def Con from 3.90356e-007 +++++++to 3.90356e-007
Heightened Def Con from 3.90356e-007 +++++to 3.90356e-007
Heightened Def Con from 3.90356e-007 +++++++to 3.90356e-007
Heightened Def Con from 3.90356e-007 +++to 3.90356e-007
Heightened Def Con from 3.90356e-007 +++++to 3.90356e-007
Heightened Def Con from 3.90356e-007 +++++++++to 3.90356e-007
Heightened Def Con from 3.90356e-007 +++++++to 3.90372e-007
Heightened Def Con from 3.90372e-007 +++++++to 3.90388e-007
Heightened Def Con from 3.90388e-007 ++++++to 3.90403e-007
Heightened Def Con from 3.90403e-007 +++to 3.91403e-007
Heightened Def Con from 3.91403e-007 ++to 3.91419e-007
Heightened Def Con from 3.91419e-007 +to 3.91544e-007
Heightened Def Con from 3.91544e-007 ++++++to 3.91544e-007
Heightened Def Con from 3.91544e-007 +++++++++to 3.91546e-007
Heightened Def Con from 3.91546e-007 ++to 3.91546e-007
Heightened Def Con from 3.91546e-007 +++to 3.91796e-007
Heightened Def Con from 3.91796e-007 ++++++to 3.91796e-007
Heightened Def Con from 3.91796e-007 +to 3.91796e-007
Heightened Def Con from 3.91796e-007 ++++++to 3.91796e-007
Heightened Def Con from 3.91796e-007 ++++++to 3.91796e-007
Heightened Def Con from 3.91796e-007 +++++to 3.91796e-007
Heightened Def Con from 3.91797e-007 +++++++to 3.91797e-007
Heightened Def Con from 3.91797e-007 ++++++to 3.91797e-007
Heightened Def Con from 3.91797e-007 ++to 3.91812e-007
Heightened Def Con from 3.91812e-007 +++++to 3.91812e-007
Heightened Def Con from 3.91812e-007 +++to 3.91814e-007
Heightened Def Con from 3.91814e-007 +++to 3.91814e-007
Heightened Def Con from 3.91814e-007 to 3.91814e-007
Heightened Def Con from 3.91814e-007 ++++++++++to 3.9183e-007
Heightened Def Con from 3.9183e-007 ++to 3.9183e-007
Heightened Def Con from 3.9183e-007 +++to 3.9183e-007
Heightened Def Con from 3.9183e-007 +to 3.9183e-007
Heightened Def Con from 3.9183e-007 +++++to 3.9183e-007
Heightened Def Con from 3.9183e-007 +++++++++to 3.9283e-007
Heightened Def Con from 3.9283e-007 +++++++to 3.9283e-007
Heightened Def Con from 3.9283e-007 +++++++++to 3.92832e-007
Heightened Def Con from 3.92832e-007 to 3.92832e-007
Heightened Def Con from 3.92832e-007 +++to 3.92832e-007
Heightened Def Con from 3.92832e-007 +++++++++to 3.92957e-007
Heightened Def Con from 3.92957e-007 +++++++to 3.93082e-007
Heightened Def Con from 3.93082e-007 ++++to 3.93082e-007
Heightened Def Con from 3.93082e-007 ++++++to 3.94082e-007
Heightened Def Con from 3.94082e-007 to 3.94082e-007
Heightened Def Con from 3.94082e-007 +++++++++to 3.94082e-007
Heightened Def Con from 3.94082e-007 ++++++++to 3.94082e-007
Heightened Def Con from 3.94082e-007 +++to 3.94082e-007
Heightened Def Con from 3.94082e-007 +++to 3.94207e-007
Heightened Def Con from 3.94207e-007 +++to 3.94332e-007
Heightened Def Con from 3.94332e-007 +++to 3.94332e-007
Heightened Def Con from 3.94332e-007 +to 3.94332e-007
Heightened Def Con from 3.94332e-007 +to 3.94332e-007
Heightened Def Con from 3.94332e-007 +++++++++to 3.94457e-007
Heightened Def Con from 3.94457e-007 +++to 3.94458e-007
Heightened Def Con from 3.94458e-007 ++to 3.9446e-007
Heightened Def Con from 3.9446e-007 +++++++++to 3.9446e-007
Heightened Def Con from 3.9446e-007 +++++++++to 3.9546e-007
Heightened Def Con from 3.9546e-007 ++++to 3.9546e-007
Heightened Def Con from 3.9546e-007 +++++to 3.95585e-007
Heightened Def Con from 3.95585e-007 +++to 3.95585e-007
Heightened Def Con from 3.95585e-007 ++++++++to 3.95587e-007
Heightened Def Con from 3.95587e-007 ++++++to 3.95587e-007
Heightened Def Con from 3.95587e-007 +++++++to 3.95587e-007
Heightened Def Con from 3.95587e-007 +++to 3.95587e-007
Heightened Def Con from 3.95587e-007 +++++++to 3.95587e-007
Heightened Def Con from 3.95587e-007 +++++++++to 3.95587e-007
Heightened Def Con from 3.95587e-007 +++++++to 3.95712e-007
Heightened Def Con from 3.95712e-007 +++++++++to 3.95714e-007
Heightened Def Con from 3.95714e-007 ++++to 3.9673e-007
Heightened Def Con from 3.9673e-007 +to 3.9673e-007
Heightened Def Con from 3.9673e-007 +++to 3.96855e-007
Heightened Def Con from 3.96855e-007 ++++++++to 3.96857e-007
Heightened Def Con from 3.96857e-007 ++++++++to 3.96857e-007
Heightened Def Con from 3.96857e-007 +++to 3.96857e-007
Heightened Def Con from 3.96857e-007 ++++++++to 3.96859e-007
Heightened Def Con from 3.96859e-007 +to 3.96861e-007
Heightened Def Con from 3.96861e-007 ++to 3.96861e-007
Heightened Def Con from 3.96861e-007 ++++++++to 3.96861e-007
Heightened Def Con from 3.96861e-007 +++to 3.96861e-007
Heightened Def Con from 3.96861e-007 +++to 3.96986e-007
Heightened Def Con from 3.96986e-007 +++++++to 3.96986e-007
Heightened Def Con from 3.96986e-007 +++to 3.97111e-007
Heightened Def Con from 3.97111e-007 ++++++++++to 3.97127e-007
Heightened Def Con from 3.97127e-007 ++++++++to 3.98127e-007
Heightened Def Con from 3.98127e-007 +to 3.98127e-007
Heightened Def Con from 3.98127e-007 +++++++to 3.98127e-007
Heightened Def Con from 3.98127e-007 +++++++to 3.98143e-007
Heightened Def Con from 3.98143e-007 ++++++++++to 3.99144e-007
Heightened Def Con from 3.99144e-007 ++to 3.99145e-007
Heightened Def Con from 3.99145e-007 +++++++++to 3.99145e-007
Heightened Def Con from 3.99145e-007 +++++++++to 3.99145e-007
Heightened Def Con from 3.99145e-007 ++++++++to 3.99145e-007
Heightened Def Con from 3.99145e-007 ++++++to 4.0016e-007
Heightened Def Con from 4.0016e-007 +to 4.0016e-007
Heightened Def Con from 4.0016e-007 ++to 4.0116e-007
Heightened Def Con from 4.0116e-007 +++to 4.01162e-007
Heightened Def Con from 4.01162e-007 +++to 4.01178e-007
Heightened Def Con from 4.01178e-007 +++to 4.01193e-007
Heightened Def Con from 4.01193e-007 ++++++++to 4.01193e-007
Heightened Def Con from 4.01193e-007 ++++++++to 4.01193e-007
Heightened Def Con from 4.01193e-007 ++++++to 4.01193e-007
Heightened Def Con from 4.01193e-007 +to 4.01195e-007
Heightened Def Con from 4.01195e-007 +to 4.01195e-007
Heightened Def Con from 4.01195e-007 +++++++++to 4.01195e-007
Heightened Def Con from 4.01195e-007 ++++++++to 4.01195e-007
Heightened Def Con from 4.01195e-007 ++++++to 4.01196e-007
Heightened Def Con from 4.01196e-007 to 4.01211e-007
Heightened Def Con from 4.01211e-007 +++++to 4.01211e-007
Heightened Def Con from 4.01211e-007 ++++++++to 4.01211e-007
Heightened Def Con from 4.01211e-007 ++++++++to 4.01211e-007
Heightened Def Con from 4.01211e-007 ++++to 4.01211e-007
Heightened Def Con from 4.01211e-007 +to 4.01211e-007
Heightened Def Con from 4.01211e-007 ++to 4.02211e-007
Heightened Def Con from 4.02211e-007 ++to 4.02212e-007
Heightened Def Con from 4.02212e-007 +++to 4.03212e-007
Heightened Def Con from 4.03212e-007 +++++++to 4.03213e-007
Heightened Def Con from 4.03213e-007 +++to 4.03215e-007
Heightened Def Con from 4.03215e-007 +++to 4.03215e-007
Heightened Def Con from 4.03215e-007 +++to 4.04215e-007
Heightened Def Con from 4.04215e-007 +++++++++to 4.04217e-007
Heightened Def Con from 4.04217e-007 ++++++++to 4.05217e-007
Heightened Def Con from 4.05217e-007 +++++++to 4.05235e-007
Heightened Def Con from 4.05235e-007 +++++++to 4.05235e-007
Heightened Def Con from 4.05235e-007 +++to 4.05235e-007
Heightened Def Con from 4.05235e-007 +to 4.05235e-007
Heightened Def Con from 4.05235e-007 ++++++++++to 4.0636e-007
Heightened Def Con from 4.0636e-007 to 4.0636e-007
Heightened Def Con from 4.0636e-007 ++++++++++to 4.06362e-007
Heightened Def Con from 4.06362e-007 ++++++++to 4.06362e-007
Heightened Def Con from 4.06362e-007 ++++++to 4.06362e-007
Heightened Def Con from 4.06362e-007 +++to 4.07487e-007
Heightened Def Con from 4.07487e-007 ++++++++to 4.07487e-007
Heightened Def Con from 4.07487e-007 +to 4.07487e-007
Heightened Def Con from 4.07487e-007 to 4.07487e-007
Heightened Def Con from 4.07487e-007 +++to 4.07612e-007
Heightened Def Con from 4.07612e-007 +++to 4.08612e-007
Heightened Def Con from 4.08612e-007 +++++++to 4.08614e-007
Heightened Def Con from 4.08614e-007 +++++++++to 4.08614e-007
Heightened Def Con from 4.08614e-007 ++++++to 4.08614e-007
Heightened Def Con from 4.08614e-007 to 4.08614e-007
Heightened Def Con from 4.08614e-007 +++to 4.08739e-007
Heightened Def Con from 4.08739e-007 +++to 4.08864e-007
Heightened Def Con from 4.08864e-007 +++to 4.09864e-007
Heightened Def Con from 4.09864e-007 +++to 4.09866e-007
Heightened Def Con from 4.09866e-007 ++to 4.09882e-007
Heightened Def Con from 4.09882e-007 +++to 4.09884e-007
Heightened Def Con from 4.09884e-007 +++++++to 4.09884e-007
Heightened Def Con from 4.09884e-007 +++to 4.09884e-007
Heightened Def Con from 4.09884e-007 +++to 4.10009e-007
Heightened Def Con from 4.10009e-007 ++++++to 4.10009e-007
Heightened Def Con from 4.10009e-007 +++++++++to 4.10009e-007
Heightened Def Con from 4.10009e-007 +++to 4.10025e-007
Heightened Def Con from 4.10025e-007 +++to 4.10025e-007
Heightened Def Con from 4.10025e-007 +++++++to 4.10025e-007
Heightened Def Con from 4.10025e-007 ++++++++to 4.10025e-007
Heightened Def Con from 4.10025e-007 ++++++++to 4.10025e-007
Heightened Def Con from 4.10025e-007 +++++++to 4.10025e-007
Heightened Def Con from 4.10025e-007 ++++++++to 4.10025e-007
Heightened Def Con from 4.10025e-007 ++++++++to 4.10025e-007
Heightened Def Con from 4.10025e-007 +++to 4.11025e-007
Heightened Def Con from 4.11025e-007 +++to 4.1115e-007
Heightened Def Con from 4.1115e-007 to 4.1115e-007
Heightened Def Con from 4.1115e-007 +++to 4.1215e-007
Heightened Def Con from 4.1215e-007 +++to 4.12275e-007
Heightened Def Con from 4.12275e-007 +++to 4.13275e-007
Heightened Def Con from 4.13275e-007 +++++++to 4.134e-007
Heightened Def Con from 4.134e-007 +++to 4.144e-007
Heightened Def Con from 4.144e-007 +++to 4.154e-007
Heightened Def Con from 4.154e-007 +to 4.154e-007
Heightened Def Con from 4.154e-007 +to 4.164e-007
Heightened Def Con from 4.16404e-007 +to 4.16404e-007
Heightened Def Con from 4.16404e-007 +++to 4.17404e-007
Heightened Def Con from 4.17404e-007 +++++++++to 4.17404e-007
Heightened Def Con from 4.17404e-007 +++to 4.18404e-007
Heightened Def Con from 4.18408e-007 +++to 4.1841e-007
Heightened Def Con from 4.1841e-007 +to 4.1841e-007
Heightened Def Con from 4.1841e-007 +++to 4.1941e-007
Heightened Def Con from 4.1941e-007 +++to 4.2041e-007
Heightened Def Con from 4.2041e-007 ++++++to 4.2041e-007
Heightened Def Con from 4.2041e-007 +++to 4.2141e-007
Heightened Def Con from 4.2141e-007 +++to 4.21535e-007
Heightened Def Con from 4.21535e-007 ++++++to 4.21535e-007
Heightened Def Con from 4.21535e-007 +to 4.2166e-007
Heightened Def Con from 4.2166e-007 +++to 4.2166e-007
Heightened Def Con from 4.2166e-007 ++to 4.2166e-007
Heightened Def Con from 4.2166e-007 ++to 4.2166e-007
Heightened Def Con from 4.2166e-007 +++to 4.2266e-007
Heightened Def Con from 4.2266e-007 +++++++++++to 4.2266e-007
Heightened Def Con from 4.2266e-007 ++++++++to 4.2266e-007
Heightened Def Con from 4.2266e-007 ++++++to 4.2266e-007
Heightened Def Con from 4.2266e-007 +++to 4.2266e-007
Heightened Def Con from 4.2266e-007 +++++++++to 4.22661e-007
Heightened Def Con from 4.22661e-007 to 4.22661e-007
Heightened Def Con from 4.22661e-007 to 4.22661e-007
Heightened Def Con from 4.22661e-007 ++++++to 4.22661e-007
Heightened Def Con from 4.22661e-007 +++++++to 4.22661e-007
Heightened Def Con from 4.22661e-007 +++to 4.23661e-007
Heightened Def Con from 4.23661e-007 +++++++to 4.23661e-007
Heightened Def Con from 4.23661e-007 ++to 4.23661e-007
Heightened Def Con from 4.23661e-007 ++++++to 4.23661e-007
Heightened Def Con from 4.23661e-007 +++to 4.24661e-007
Heightened Def Con from 4.24661e-007 +to 4.24661e-007
Heightened Def Con from 4.24661e-007 ++++++++to 4.24661e-007
Heightened Def Con from 4.24661e-007 +++++++to 4.24661e-007
Heightened Def Con from 4.24661e-007 to 4.24661e-007
Heightened Def Con from 4.24661e-007 +++to 4.24786e-007
Heightened Def Con from 4.24786e-007 +++++++++to 4.24786e-007
Heightened Def Con from 4.24786e-007 +++to 4.24911e-007
Heightened Def Con from 4.24911e-007 ++to 4.24911e-007
Heightened Def Con from 4.24911e-007 ++to 4.25911e-007
Heightened Def Con from 4.25911e-007 to 4.25911e-007
Heightened Def Con from 4.25911e-007 ++to 4.26036e-007
Heightened Def Con from 4.26036e-007 +++to 4.26161e-007
Heightened Def Con from 4.26161e-007 +++++++++to 4.26161e-007
Heightened Def Con from 4.26161e-007 +++++++++to 4.26161e-007
Heightened Def Con from 4.26161e-007 +++to 4.27161e-007
Heightened Def Con from 4.27161e-007 +++++++++to 4.27161e-007
Heightened Def Con from 4.27161e-007 to 4.27161e-007
Heightened Def Con from 4.27161e-007 ++++++++to 4.28161e-007
Heightened Def Con from 4.28161e-007 ++++++to 4.28161e-007
Heightened Def Con from 4.28161e-007 to 4.28161e-007
Heightened Def Con from 4.28161e-007 ++++++++++to 4.28161e-007
Heightened Def Con from 4.28161e-007 ++to 4.29163e-007
Heightened Def Con from 4.29163e-007 ++to 4.30163e-007
Heightened Def Con from 4.30163e-007 ++++to 4.30163e-007
Heightened Def Con from 4.30163e-007 +++to 4.30288e-007
Heightened Def Con from 4.30288e-007 to 4.30413e-007
Heightened Def Con from 4.30663e-007 +++++to 4.30788e-007
Heightened Def Con from 4.30788e-007 +++++to 4.30788e-007
Heightened Def Con from 4.30788e-007 +++++++++to 4.30788e-007
Heightened Def Con from 4.30788e-007 ++++++++++to 4.3079e-007
Heightened Def Con from 4.3079e-007 +++++++to 4.3079e-007
Heightened Def Con from 4.3079e-007 ++++to 4.30791e-007
Heightened Def Con from 4.30791e-007 +++++++++to 4.31792e-007
Heightened Def Con from 4.31792e-007 ++++++++to 4.31808e-007
Heightened Def Con from 4.31808e-007 +++++++++to 4.31808e-007
Heightened Def Con from 4.31808e-007 +++++++++to 4.31808e-007
Heightened Def Con from 4.31808e-007 ++++++to 4.31808e-007
Heightened Def Con from 4.31808e-007 ++to 4.31808e-007
Heightened Def Con from 4.31808e-007 +++to 4.31933e-007
Heightened Def Con from 4.31933e-007 +++to 4.31933e-007
Heightened Def Con from 4.31933e-007 +++to 4.32058e-007
Heightened Def Con from 4.32058e-007 to 4.32183e-007
Heightened Def Con from 4.32183e-007 +to 4.33183e-007
Heightened Def Con from 4.33187e-007 ++to 4.33312e-007
Heightened Def Con from 4.33312e-007 ++++++to 4.33328e-007
Heightened Def Con from 4.33328e-007 ++++++to 4.33328e-007
Heightened Def Con from 4.33328e-007 +++to 4.33328e-007
Heightened Def Con from 4.33328e-007 +to 4.33328e-007
Heightened Def Con from 4.33328e-007 +++to 4.33328e-007
Heightened Def Con from 4.33328e-007 +to 4.33328e-007
Heightened Def Con from 4.33328e-007 +++to 4.33328e-007
Heightened Def Con from 4.33328e-007 ++++++++to 4.33328e-007
Heightened Def Con from 4.33328e-007 ++++++++to 4.33328e-007
Heightened Def Con from 4.33328e-007 ++++to 4.33453e-007
Heightened Def Con from 4.33453e-007 +++++++++to 4.33453e-007
Heightened Def Con from 4.33453e-007 +++++++++to 4.33453e-007
Heightened Def Con from 4.33453e-007 +++++++++to 4.33453e-007
Heightened Def Con from 4.33453e-007 ++++++++to 4.33453e-007
Heightened Def Con from 4.33453e-007 ++++++++to 4.33453e-007
Heightened Def Con from 4.33453e-007 ++++to 4.33453e-007
Heightened Def Con from 4.33453e-007 ++++to 4.33453e-007
Heightened Def Con from 4.33453e-007 ++++++++++to 4.33469e-007
Heightened Def Con from 4.33469e-007 +++++++to 4.33485e-007
Heightened Def Con from 4.33485e-007 +to 4.33485e-007
Heightened Def Con from 4.33485e-007 ++++++++++to 4.335e-007
Heightened Def Con from 4.335e-007 ++++++++++to 4.33501e-007
Heightened Def Con from 4.33501e-007 +++++++++to 4.33501e-007
Heightened Def Con from 4.33501e-007 ++++++to 4.33501e-007
Heightened Def Con from 4.33501e-007 ++++++++to 4.33501e-007
Heightened Def Con from 4.33501e-007 ++++++to 4.33503e-007
Heightened Def Con from 4.33503e-007 ++++++++to 4.33519e-007
Heightened Def Con from 4.33519e-007 +++++to 4.33519e-007
Heightened Def Con from 4.33519e-007 +++++++to 4.33519e-007
Heightened Def Con from 4.33519e-007 +++to 4.33535e-007
Heightened Def Con from 4.33535e-007 +to 4.33535e-007
Heightened Def Con from 4.33535e-007 +++to 4.3355e-007
Heightened Def Con from 4.3355e-007 ++to 4.33552e-007
Heightened Def Con from 4.33552e-007 ++++++++to 4.33552e-007
Heightened Def Con from 4.33552e-007 +++++++to 4.33552e-007
Heightened Def Con from 4.33552e-007 +++++++to 4.33552e-007
Heightened Def Con from 4.33552e-007 +++to 4.33568e-007
Heightened Def Con from 4.33568e-007 +++to 4.33693e-007
Heightened Def Con from 4.33693e-007 ++++++++to 4.33693e-007
Heightened Def Con from 4.33693e-007 to 4.33693e-007
Heightened Def Con from 4.33693e-007 +++++++++to 4.33693e-007
Heightened Def Con from 4.33693e-007 +++++++to 4.33693e-007
Heightened Def Con from 4.33693e-007 +++++++++to 4.33693e-007
Heightened Def Con from 4.33693e-007 +++++to 4.33693e-007
Heightened Def Con from 4.33693e-007 ++to 4.33693e-007
Heightened Def Con from 4.33693e-007 ++to 4.33693e-007
Heightened Def Con from 4.33693e-007 ++++++to 4.33693e-007
Heightened Def Con from 4.33693e-007 ++to 4.33709e-007
Heightened Def Con from 4.33709e-007 +++to 4.34709e-007
Heightened Def Con from 4.34709e-007 +++++++to 4.34709e-007
Heightened Def Con from 4.34709e-007 +++++++++to 4.34709e-007
Heightened Def Con from 4.34709e-007 +++++++to 4.34709e-007
Heightened Def Con from 4.34709e-007 +to 4.34709e-007
Heightened Def Con from 4.34709e-007 to 4.34709e-007
Heightened Def Con from 4.34709e-007 ++++++to 4.34709e-007
Heightened Def Con from 4.34709e-007 ++++++++to 4.34711e-007
Heightened Def Con from 4.34711e-007 +++++++to 4.34711e-007
Heightened Def Con from 4.34711e-007 +++++++to 4.34711e-007
Heightened Def Con from 4.34711e-007 +++++++to 4.34713e-007
Heightened Def Con from 4.34713e-007 ++++to 4.34713e-007
Heightened Def Con from 4.34713e-007 ++++++++++to 4.35713e-007
Heightened Def Con from 4.35713e-007 +++++++++to 4.35713e-007
Heightened Def Con from 4.35713e-007 ++++++++to 4.35715e-007
Heightened Def Con from 4.35715e-007 ++++++to 4.35718e-007
Heightened Def Con from 4.35718e-007 +to 4.35718e-007
Heightened Def Con from 4.35718e-007 ++++++++to 4.35718e-007
Heightened Def Con from 4.35718e-007 ++++++++++to 4.3572e-007
Heightened Def Con from 4.3572e-007 +++++++to 4.3572e-007
Heightened Def Con from 4.3572e-007 +++++++to 4.3572e-007
Heightened Def Con from 4.3572e-007 ++++++++to 4.3572e-007
Heightened Def Con from 4.3572e-007 ++++++++to 4.3572e-007
Heightened Def Con from 4.3572e-007 +to 4.3572e-007
Heightened Def Con from 4.3572e-007 +++++++to 4.3572e-007
Heightened Def Con from 4.3572e-007 ++++++++to 4.3572e-007
Heightened Def Con from 4.3572e-007 ++++to 4.3572e-007
Heightened Def Con from 4.3572e-007 ++to 4.3572e-007
Heightened Def Con from 4.3572e-007 to 4.3572e-007
Heightened Def Con from 4.3572e-007 ++++++++to 4.3572e-007
Heightened Def Con from 4.3572e-007 ++++++++to 4.35845e-007
Heightened Def Con from 4.35845e-007 ++++++++to 4.35845e-007
Heightened Def Con from 4.35845e-007 +++++++to 4.35845e-007
Heightened Def Con from 4.35845e-007 +++to 4.35845e-007
Heightened Def Con from 4.35845e-007 +++++to 4.35971e-007
Heightened Def Con from 4.35971e-007 +++++++++to 4.35971e-007
Heightened Def Con from 4.35971e-007 ++++++++to 4.35971e-007
Heightened Def Con from 4.35971e-007 ++++to 4.35971e-007
Heightened Def Con from 4.35971e-007 ++++++++to 4.35971e-007
Heightened Def Con from 4.35971e-007 ++++++++to 4.35971e-007
Heightened Def Con from 4.35971e-007 +to 4.35971e-007
Heightened Def Con from 4.35971e-007 +++++to 4.35973e-007
Heightened Def Con from 4.35973e-007 ++++to 4.35973e-007
Heightened Def Con from 4.35973e-007 +to 4.35973e-007
Heightened Def Con from 4.35973e-007 +++++++to 4.35989e-007
Heightened Def Con from 4.35989e-007 +to 4.35989e-007
Heightened Def Con from 4.35989e-007 ++++++++++to 4.35989e-007
Heightened Def Con from 4.35989e-007 ++to 4.35989e-007
Heightened Def Con from 4.35989e-007 +++++++to 4.35989e-007
Heightened Def Con from 4.35989e-007 to 4.35989e-007
Heightened Def Con from 4.35989e-007 +++++to 4.35989e-007
Heightened Def Con from 4.35989e-007 +++++++++to 4.35989e-007
Heightened Def Con from 4.35989e-007 ++++++++++to 4.35989e-007
Heightened Def Con from 4.35989e-007 ++++++++to 4.35989e-007
Heightened Def Con from 4.35989e-007 ++++++++to 4.35989e-007
Heightened Def Con from 4.35989e-007 ++++to 4.35989e-007
Heightened Def Con from 4.35989e-007 +++++++++to 4.36114e-007
Heightened Def Con from 4.36114e-007 +++++to 4.36114e-007
Heightened Def Con from 4.36114e-007 to 4.36114e-007
Heightened Def Con from 4.36114e-007 +++to 4.36114e-007
Heightened Def Con from 4.36114e-007 +++++++to 4.36114e-007
Heightened Def Con from 4.36114e-007 +++++++to 4.36114e-007
Heightened Def Con from 4.36114e-007 ++++++to 4.36114e-007
Heightened Def Con from 4.36114e-007 ++++++++to 4.36114e-007
Heightened Def Con from 4.36114e-007 ++to 4.36114e-007
Heightened Def Con from 4.36114e-007 +to 4.36114e-007
Heightened Def Con from 4.36114e-007 +++++++++to 4.36129e-007
Heightened Def Con from 4.36129e-007 +++++++++to 4.36129e-007
Heightened Def Con from 4.36129e-007 ++++++++to 4.36129e-007
Heightened Def Con from 4.36129e-007 to 4.3613e-007
Heightened Def Con from 4.3613e-007 ++++++to 4.36132e-007
Heightened Def Con from 4.36132e-007 ++++++++++to 4.36132e-007
Heightened Def Con from 4.36132e-007 ++++++to 4.36132e-007
Heightened Def Con from 4.36132e-007 ++++to 4.36132e-007
Heightened Def Con from 4.36132e-007 ++++to 4.37132e-007
Heightened Def Con from 4.37132e-007 ++++++++to 4.37132e-007
Heightened Def Con from 4.37132e-007 ++++++++to 4.37257e-007
Heightened Def Con from 4.37257e-007 ++++++++++to 4.37257e-007
Heightened Def Con from 4.37257e-007 +++to 4.37257e-007
Heightened Def Con from 4.37257e-007 ++++to 4.37257e-007
Heightened Def Con from 4.37257e-007 ++++++to 4.37257e-007
Heightened Def Con from 4.37257e-007 +++to 4.37257e-007
Heightened Def Con from 4.37257e-007 +to 4.37257e-007
Heightened Def Con from 4.37257e-007 +++++++to 4.37259e-007
Heightened Def Con from 4.37259e-007 +++++++to 4.37384e-007
Heightened Def Con from 4.37384e-007 +++++++++++to 4.374e-007
Heightened Def Con from 4.374e-007 ++to 4.374e-007
Heightened Def Con from 4.374e-007 +++++++++to 4.374e-007
Heightened Def Con from 4.374e-007 +++++++to 4.374e-007
Heightened Def Con from 4.374e-007 ++++++++to 4.374e-007
Heightened Def Con from 4.374e-007 ++to 4.374e-007
Heightened Def Con from 4.374e-007 +++to 4.374e-007
Heightened Def Con from 4.374e-007 +++++++++to 4.37525e-007
Heightened Def Con from 4.37525e-007 ++++++++++to 4.3765e-007
Heightened Def Con from 4.3765e-007 +++++++++to 4.3765e-007
Heightened Def Con from 4.3765e-007 +++to 4.3765e-007
Heightened Def Con from 4.3765e-007 ++to 4.3765e-007
Heightened Def Con from 4.3765e-007 +++++++++to 4.3765e-007
Heightened Def Con from 4.3765e-007 ++++to 4.3765e-007
Heightened Def Con from 4.3765e-007 +++to 4.3765e-007
Heightened Def Con from 4.3765e-007 +++++++++to 4.3765e-007
Heightened Def Con from 4.3765e-007 ++++++++to 4.3765e-007
Heightened Def Con from 4.3765e-007 +to 4.3765e-007
Heightened Def Con from 4.3765e-007 +++to 4.3765e-007
Heightened Def Con from 4.3765e-007 +++++++++to 4.37651e-007
Heightened Def Con from 4.37651e-007 ++++++++++to 4.37653e-007
Heightened Def Con from 4.37653e-007 ++++++++to 4.37653e-007
Heightened Def Con from 4.37653e-007 +++++++++to 4.37653e-007
Heightened Def Con from 4.37653e-007 ++++++++to 4.37653e-007
Heightened Def Con from 4.37653e-007 to 4.37653e-007
Heightened Def Con from 4.37653e-007 +++++++++to 4.37653e-007
Heightened Def Con from 4.37653e-007 +++++++++to 4.37653e-007
Heightened Def Con from 4.37653e-007 +++++++to 4.37653e-007
Heightened Def Con from 4.37653e-007 +++++++++to 4.37778e-007
Heightened Def Con from 4.37778e-007 ++++to 4.37903e-007
Heightened Def Con from 4.37903e-007 ++++++++to 4.37903e-007
Heightened Def Con from 4.37903e-007 +++++to 4.37903e-007
Heightened Def Con from 4.37903e-007 ++++to 4.37903e-007
Heightened Def Con from 4.37903e-007 +++++++++to 4.37919e-007
Heightened Def Con from 4.37919e-007 +++++++++to 4.37919e-007
Heightened Def Con from 4.37919e-007 +++++to 4.37919e-007
Heightened Def Con from 4.37919e-007 +++to 4.37919e-007
Heightened Def Con from 4.37919e-007 +++++++to 4.37919e-007
Heightened Def Con from 4.37919e-007 ++++to 4.3792e-007
Heightened Def Con from 4.3792e-007 to 4.3792e-007
Heightened Def Con from 4.3792e-007 +++++++++to 4.3792e-007
Heightened Def Con from 4.3792e-007 +++++++to 4.3792e-007
Heightened Def Con from 4.3792e-007 +++to 4.39045e-007
Heightened Def Con from 4.39045e-007 +++++++++to 4.39047e-007
Heightened Def Con from 4.39047e-007 ++++++++to 4.39047e-007
Heightened Def Con from 4.39047e-007 ++++++++to 4.39047e-007
Heightened Def Con from 4.39047e-007 +to 4.39047e-007
Heightened Def Con from 4.39047e-007 ++++++++to 4.39047e-007
Heightened Def Con from 4.39047e-007 ++to 4.39047e-007
Heightened Def Con from 4.39047e-007 ++++++++++to 4.39047e-007
Heightened Def Con from 4.39047e-007 +++++++++to 4.39049e-007
Heightened Def Con from 4.39049e-007 ++to 4.39049e-007
Heightened Def Con from 4.39049e-007 +++++++++to 4.39065e-007
Heightened Def Con from 4.39065e-007 ++++++to 4.39065e-007
Heightened Def Con from 4.39065e-007 +to 4.39065e-007
Heightened Def Con from 4.39065e-007 ++++++++++to 4.39065e-007
Heightened Def Con from 4.39065e-007 ++++++++to 4.39065e-007
Heightened Def Con from 4.39065e-007 +++++++++to 4.39065e-007
Heightened Def Con from 4.39065e-007 ++++++++to 4.3919e-007
Heightened Def Con from 4.3919e-007 +++++++to 4.3919e-007
Heightened Def Con from 4.3919e-007 +++++++to 4.3919e-007
Heightened Def Con from 4.3919e-007 +++++++to 4.3919e-007
Heightened Def Con from 4.3919e-007 +++++++to 4.3919e-007
Heightened Def Con from 4.3919e-007 +++++++to 4.39192e-007
Heightened Def Con from 4.39192e-007 ++++++++++to 4.39192e-007
Heightened Def Con from 4.39192e-007 +++to 4.39192e-007
Heightened Def Con from 4.39192e-007 ++++to 4.39317e-007
Heightened Def Con from 4.39317e-007 +++++++++to 4.39317e-007
Heightened Def Con from 4.39317e-007 ++++to 4.40317e-007
Heightened Def Con from 4.40317e-007 +++++to 4.40317e-007
Heightened Def Con from 4.40317e-007 ++to 4.40317e-007
Heightened Def Con from 4.40317e-007 +to 4.40317e-007
Heightened Def Con from 4.40317e-007 ++++++++to 4.40442e-007
Heightened Def Con from 4.40442e-007 +++to 4.40442e-007
Heightened Def Con from 4.40442e-007 +++to 4.40442e-007
Heightened Def Con from 4.40442e-007 ++to 4.40442e-007
Heightened Def Con from 4.40442e-007 +++to 4.41442e-007
Heightened Def Con from 4.41442e-007 ++++++to 4.41442e-007
Heightened Def Con from 4.41442e-007 +++++++++to 4.41442e-007
Heightened Def Con from 4.41442e-007 +++++++++to 4.41442e-007
Heightened Def Con from 4.41442e-007 ++++++to 4.41442e-007
Heightened Def Con from 4.41442e-007 ++++++to 4.41567e-007
Heightened Def Con from 4.41567e-007 ++++++++++to 4.41567e-007
Heightened Def Con from 4.41567e-007 ++++to 4.42567e-007
Heightened Def Con from 4.42567e-007 +++to 4.42567e-007
Heightened Def Con from 4.42567e-007 +++to 4.43567e-007
Heightened Def Con from 4.43567e-007 +++++to 4.43567e-007
Heightened Def Con from 4.43567e-007 +++++++++++to 4.43692e-007
Heightened Def Con from 4.43692e-007 +++++++++to 4.43708e-007
Heightened Def Con from 4.43708e-007 ++++++++++to 4.43833e-007
Heightened Def Con from 4.43833e-007 ++++++++to 4.43833e-007
Heightened Def Con from 4.43833e-007 +++to 4.43958e-007
Heightened Def Con from 4.43958e-007 ++++++++to 4.43958e-007
Heightened Def Con from 4.43958e-007 +++++++to 4.43958e-007
Heightened Def Con from 4.43958e-007 to 4.43958e-007
Heightened Def Con from 4.43958e-007 +to 4.4396e-007
Heightened Def Con from 4.4396e-007 to 4.4396e-007
Heightened Def Con from 4.4396e-007 +++to 4.4396e-007
Heightened Def Con from 4.4396e-007 +++++to 4.4396e-007
Heightened Def Con from 4.4396e-007 +to 4.4396e-007
Heightened Def Con from 4.4396e-007 +++++++to 4.4396e-007
Heightened Def Con from 4.4396e-007 +++++to 4.44085e-007
Heightened Def Con from 4.44085e-007 ++to 4.44085e-007
Heightened Def Con from 4.44085e-007 +++++++to 4.44101e-007
Heightened Def Con from 4.44101e-007 +++++++to 4.44101e-007
Heightened Def Con from 4.44101e-007 ++++++to 4.44101e-007
Heightened Def Con from 4.44101e-007 +++to 4.44101e-007
Heightened Def Con from 4.44101e-007 +++to 4.44101e-007
Heightened Def Con from 4.44101e-007 +++++++++to 4.44101e-007
Heightened Def Con from 4.44101e-007 ++++++++++to 4.44226e-007
Heightened Def Con from 4.44226e-007 +++++++to 4.44226e-007
Heightened Def Con from 4.44226e-007 ++++to 4.44226e-007
Heightened Def Con from 4.44226e-007 to 4.44226e-007
Heightened Def Con from 4.44226e-007 +++++++to 4.44226e-007
Heightened Def Con from 4.44226e-007 ++++++to 4.44476e-007
Heightened Def Con from 4.44476e-007 +++++++to 4.44476e-007
Heightened Def Con from 4.44476e-007 ++++to 4.44601e-007
Heightened Def Con from 4.44601e-007 to 4.44601e-007
Heightened Def Con from 4.44601e-007 +++++to 4.44602e-007
Heightened Def Con from 4.44602e-007 ++++++++to 4.44602e-007
Heightened Def Con from 4.44602e-007 ++++++++to 4.44602e-007
Heightened Def Con from 4.44602e-007 +++++++++to 4.44602e-007
Heightened Def Con from 4.44602e-007 +++to 4.44602e-007
Heightened Def Con from 4.44602e-007 ++++to 4.45602e-007
Heightened Def Con from 4.45602e-007 to 4.45602e-007
Heightened Def Con from 4.45602e-007 ++++++to 4.45602e-007
Heightened Def Con from 4.45602e-007 +++++++to 4.45602e-007
Heightened Def Con from 4.45602e-007 ++++++++to 4.45602e-007
Heightened Def Con from 4.45602e-007 ++++++++to 4.45602e-007
Heightened Def Con from 4.45602e-007 +++++++to 4.45602e-007
Heightened Def Con from 4.45602e-007 ++++++++++to 4.45602e-007
Heightened Def Con from 4.45602e-007 ++++to 4.45604e-007
Heightened Def Con from 4.45604e-007 ++++to 4.45729e-007
Heightened Def Con from 4.45729e-007 ++++++to 4.45729e-007
Heightened Def Con from 4.45729e-007 +++to 4.45854e-007
Heightened Def Con from 4.45854e-007 +to 4.45856e-007
Heightened Def Con from 4.45856e-007 ++++to 4.45856e-007
Heightened Def Con from 4.45856e-007 ++++++++to 4.45856e-007
Heightened Def Con from 4.45856e-007 +++to 4.45856e-007
Heightened Def Con from 4.45856e-007 ++to 4.45856e-007
Heightened Def Con from 4.45856e-007 +++++++++to 4.45856e-007
Heightened Def Con from 4.45856e-007 ++++++++to 4.45856e-007
Heightened Def Con from 4.45856e-007 +++++++++to 4.46856e-007
Heightened Def Con from 4.46856e-007 ++++++++++to 4.46856e-007
Heightened Def Con from 4.46856e-007 ++++++++to 4.46856e-007
Heightened Def Con from 4.46856e-007 +++++++++to 4.46858e-007
Heightened Def Con from 4.46858e-007 +++++to 4.46858e-007
Heightened Def Con from 4.46858e-007 ++++++++++to 4.46983e-007
Heightened Def Con from 4.46983e-007 +++++++++to 4.47985e-007
Heightened Def Con from 4.47985e-007 +++++++++to 4.47985e-007
Heightened Def Con from 4.47985e-007 +++to 4.47985e-007
Heightened Def Con from 4.47985e-007 ++++to 4.47985e-007
Heightened Def Con from 4.47985e-007 ++++++++++to 4.47985e-007
Heightened Def Con from 4.47985e-007 +++++++++to 4.47985e-007
Heightened Def Con from 4.47985e-007 +++to 4.47985e-007
Heightened Def Con from 4.47985e-007 +++++++++to 4.48985e-007
Heightened Def Con from 4.48985e-007 ++++++++to 4.48985e-007
Heightened Def Con from 4.48985e-007 ++++++++to 4.48985e-007
Heightened Def Con from 4.48985e-007 +++++++++to 4.48986e-007
Heightened Def Con from 4.48986e-007 +++++++++to 4.48986e-007
Heightened Def Con from 4.48986e-007 ++++to 4.49111e-007
Heightened Def Con from 4.49111e-007 ++++++++++to 4.49111e-007
Heightened Def Con from 4.49111e-007 +++++++to 4.49111e-007
Heightened Def Con from 4.49111e-007 ++++++to 4.49111e-007
Heightened Def Con from 4.49111e-007 +++++++to 4.49113e-007
Heightened Def Con from 4.49113e-007 +++to 4.49238e-007
Heightened Def Con from 4.49238e-007 ++++to 4.49238e-007
Heightened Def Con from 4.49238e-007 +++to 4.49238e-007
Heightened Def Con from 4.49238e-007 ++++++++to 4.49238e-007
Heightened Def Con from 4.49238e-007 +++++++to 4.49238e-007
Heightened Def Con from 4.49238e-007 to 4.49238e-007
Heightened Def Con from 4.49238e-007 +++++to 4.49238e-007
Heightened Def Con from 4.49238e-007 ++++++++++to 4.49238e-007
Heightened Def Con from 4.49238e-007 +++++++++to 4.49238e-007
Heightened Def Con from 4.49238e-007 ++++++++++to 4.49238e-007
Heightened Def Con from 4.49238e-007 ++++++++to 4.49238e-007
Heightened Def Con from 4.49238e-007 ++++to 4.49238e-007
Heightened Def Con from 4.49238e-007 +++to 4.4924e-007
Heightened Def Con from 4.4924e-007 +to 4.4924e-007
Heightened Def Con from 4.4924e-007 +++++++++to 4.4924e-007
Heightened Def Con from 4.4924e-007 +++++++to 4.49241e-007
Heightened Def Con from 4.49241e-007 ++++++++++to 4.49243e-007
Heightened Def Con from 4.49243e-007 ++to 4.49243e-007
Heightened Def Con from 4.49243e-007 to 4.49368e-007
Heightened Def Con from 4.49368e-007 +++++++to 4.49368e-007
Heightened Def Con from 4.49368e-007 +++to 4.49493e-007
Heightened Def Con from 4.49493e-007 ++++++++to 4.49493e-007
Heightened Def Con from 4.49493e-007 ++++++to 4.49493e-007
Heightened Def Con from 4.49493e-007 ++to 4.49618e-007
Heightened Def Con from 4.49618e-007 +++++++++to 4.49618e-007
Heightened Def Con from 4.49618e-007 ++++++++++to 4.49618e-007
Heightened Def Con from 4.49618e-007 +++++++++to 4.49618e-007
Heightened Def Con from 4.49618e-007 ++++++++++to 4.49634e-007
Heightened Def Con from 4.49634e-007 ++++++++to 4.49634e-007
Heightened Def Con from 4.49634e-007 ++++++++to 4.49634e-007
Heightened Def Con from 4.49634e-007 ++++++++++to 4.49649e-007
Heightened Def Con from 4.49649e-007 ++++to 4.49649e-007
Heightened Def Con from 4.49649e-007 +++++++to 4.50649e-007
Heightened Def Con from 4.50649e-007 ++to 4.50774e-007
Heightened Def Con from 4.50774e-007 +++to 4.50774e-007
Heightened Def Con from 4.50774e-007 ++++++++to 4.50774e-007
Heightened Def Con from 4.50774e-007 ++++++++to 4.50774e-007
Heightened Def Con from 4.50774e-007 +++++++++to 4.50775e-007
Heightened Def Con from 4.50775e-007 ++++++++++to 4.50775e-007
Heightened Def Con from 4.50775e-007 ++++++++to 4.50775e-007
Heightened Def Con from 4.50775e-007 +++++++++to 4.50775e-007
Heightened Def Con from 4.50775e-007 ++++++to 4.51775e-007
Heightened Def Con from 4.51775e-007 +++++++++to 4.51775e-007
Heightened Def Con from 4.51775e-007 ++++to 4.52775e-007
Heightened Def Con from 4.52775e-007 ++++++++++to 4.52777e-007
Heightened Def Con from 4.52777e-007 ++++++++to 4.52777e-007
Heightened Def Con from 4.52777e-007 ++++++++++to 4.52902e-007
Heightened Def Con from 4.52902e-007 ++++++++to 4.52902e-007
Heightened Def Con from 4.52902e-007 ++++++++to 4.52902e-007
Heightened Def Con from 4.52902e-007 ++++++++to 4.52902e-007
Heightened Def Con from 4.52902e-007 ++++++++++to 4.52902e-007
Heightened Def Con from 4.52902e-007 ++++++++to 4.52902e-007
Heightened Def Con from 4.52902e-007 ++++++++to 4.52902e-007
Heightened Def Con from 4.52902e-007 ++to 4.52902e-007
Heightened Def Con from 4.52902e-007 ++++++++++to 4.52902e-007
Heightened Def Con from 4.52902e-007 ++++to 4.52902e-007
Heightened Def Con from 4.52902e-007 ++++++++++to 4.52902e-007
Heightened Def Con from 4.52902e-007 +++++++++to 4.52902e-007
Heightened Def Con from 4.52902e-007 ++++++++to 4.52902e-007
Heightened Def Con from 4.52902e-007 +to 4.52902e-007
Heightened Def Con from 4.52902e-007 +++++++++to 4.52902e-007
Heightened Def Con from 4.52902e-007 ++++++++to 4.52902e-007
Heightened Def Con from 4.52902e-007 ++++++to 4.52902e-007
Heightened Def Con from 4.52902e-007 +++++++++to 4.53028e-007
Heightened Def Con from 4.53028e-007 ++++++to 4.54028e-007
Heightened Def Con from 4.54028e-007 ++++++to 4.54028e-007
Heightened Def Con from 4.54028e-007 ++++++to 4.54028e-007
Heightened Def Con from 4.54028e-007 ++++++++to 4.54028e-007
Heightened Def Con from 4.54028e-007 +++to 4.54028e-007
Heightened Def Con from 4.54028e-007 ++to 4.54028e-007
Heightened Def Con from 4.54028e-007 ++to 4.54153e-007
Heightened Def Con from 4.54153e-007 ++++++++to 4.54153e-007
Heightened Def Con from 4.54153e-007 +++++++to 4.54154e-007
Heightened Def Con from 4.54154e-007 ++++++++++to 4.55154e-007
Heightened Def Con from 4.55154e-007 +++++++++to 4.55154e-007
Heightened Def Con from 4.55154e-007 ++++++++to 4.55154e-007
Heightened Def Con from 4.55154e-007 ++to 4.55154e-007
Heightened Def Con from 4.55154e-007 ++++to 4.55154e-007
Heightened Def Con from 4.55154e-007 +++++++++to 4.55172e-007
Heightened Def Con from 4.55172e-007 +++++++to 4.55172e-007
Heightened Def Con from 4.55172e-007 +++++to 4.55172e-007
Heightened Def Con from 4.55172e-007 to 4.55172e-007
Heightened Def Con from 4.55172e-007 +++++++to 4.55172e-007
Heightened Def Con from 4.55172e-007 ++++++to 4.55172e-007
Heightened Def Con from 4.55172e-007 ++++++++++to 4.55187e-007
Heightened Def Con from 4.55187e-007 to 4.55187e-007
Heightened Def Con from 4.55187e-007 +++++to 4.55187e-007
Heightened Def Con from 4.55187e-007 +++++++to 4.55314e-007
Heightened Def Con from 4.55314e-007 +++++++to 4.55314e-007
Heightened Def Con from 4.55314e-007 ++++++to 4.55315e-007
Heightened Def Con from 4.55315e-007 +++++++to 4.55315e-007
Heightened Def Con from 4.55315e-007 ++to 4.55315e-007
Heightened Def Con from 4.55315e-007 ++++++++++to 4.55315e-007
Heightened Def Con from 4.55315e-007 ++++++++++to 4.55315e-007
Heightened Def Con from 4.55315e-007 to 4.55315e-007
Heightened Def Con from 4.55315e-007 +++++++++to 4.55317e-007
Heightened Def Con from 4.55317e-007 +++++++++++to 4.55442e-007
Heightened Def Con from 4.55442e-007 +++++++++to 4.55444e-007
Heightened Def Con from 4.55444e-007 +++++to 4.56444e-007
Heightened Def Con from 4.56444e-007 ++++++++to 4.56444e-007
Heightened Def Con from 4.56444e-007 +++++++to 4.56444e-007
Heightened Def Con from 4.56444e-007 ++++to 4.57444e-007
Heightened Def Con from 4.57444e-007 +++to 4.57444e-007
Heightened Def Con from 4.57444e-007 to 4.57444e-007
Heightened Def Con from 4.57444e-007 ++to 4.57444e-007
Heightened Def Con from 4.57444e-007 ++++++++++to 4.57444e-007
Heightened Def Con from 4.57444e-007 ++++to 4.57569e-007
Heightened Def Con from 4.57569e-007 ++++to 4.5757e-007
Heightened Def Con from 4.5757e-007 +++++++++to 4.5757e-007
Heightened Def Con from 4.5757e-007 +++++++++to 4.5757e-007
Heightened Def Con from 4.5757e-007 ++++++++++to 4.5757e-007
Heightened Def Con from 4.5757e-007 ++++++++to 4.57572e-007
Heightened Def Con from 4.57572e-007 +++++++++to 4.58572e-007
Heightened Def Con from 4.58572e-007 +++++++++to 4.58572e-007
Heightened Def Con from 4.58572e-007 +++++++++to 4.58572e-007
Heightened Def Con from 4.58572e-007 ++++++++++to 4.58712e-007
Heightened Def Con from 4.58712e-007 ++++++++to 4.58713e-007
Heightened Def Con from 4.58713e-007 ++++++++to 4.58713e-007
Heightened Def Con from 4.58713e-007 +++++++++to 4.58713e-007
Heightened Def Con from 4.58713e-007 +++++++++to 4.58713e-007
Heightened Def Con from 4.58713e-007 to 4.58713e-007
Heightened Def Con from 4.58713e-007 +++++++++to 4.58713e-007
Heightened Def Con from 4.58713e-007 ++++++to 4.58713e-007
Heightened Def Con from 4.58713e-007 ++++to 4.59088e-007
Heightened Def Con from 4.59088e-007 +to 4.59088e-007
Heightened Def Con from 4.59088e-007 ++++++to 4.5909e-007
Heightened Def Con from 4.5909e-007 +to 4.5909e-007
Heightened Def Con from 4.5909e-007 ++++to 4.6009e-007
Heightened Def Con from 4.6009e-007 +++to 4.6109e-007
Heightened Def Con from 4.6109e-007 +to 4.6109e-007
Heightened Def Con from 4.6109e-007 ++++to 4.61092e-007
Heightened Def Con from 4.61092e-007 ++++to 4.61092e-007
Heightened Def Con from 4.61092e-007 +++to 4.61092e-007
Heightened Def Con from 4.61092e-007 ++++to 4.61217e-007
Heightened Def Con from 4.61217e-007 to 4.61217e-007
Heightened Def Con from 4.61217e-007 ++++to 4.61219e-007
Heightened Def Con from 4.61219e-007 ++++++++to 4.61219e-007
Heightened Def Con from 4.61219e-007 ++++to 4.61344e-007
Heightened Def Con from 4.61344e-007 +to 4.61345e-007
Heightened Def Con from 4.61345e-007 ++++to 4.61346e-007
Heightened Def Con from 4.61346e-007 ++to 4.61346e-007
Heightened Def Con from 4.61346e-007 +++++++++to 4.61346e-007
Heightened Def Con from 4.61346e-007 ++++++++to 4.61346e-007
Heightened Def Con from 4.61346e-007 ++++to 4.62346e-007
Heightened Def Con from 4.6235e-007 ++++to 4.62475e-007
Heightened Def Con from 4.62475e-007 ++++to 4.62477e-007
Heightened Def Con from 4.62477e-007 +to 4.62477e-007
Heightened Def Con from 4.62477e-007 ++++to 4.62602e-007
Heightened Def Con from 4.62602e-007 ++++to 4.62727e-007
Heightened Def Con from 4.62727e-007 ++++to 4.63727e-007
Heightened Def Con from 4.63727e-007 ++++++to 4.63727e-007
Heightened Def Con from 4.63727e-007 +++++++to 4.63727e-007
Heightened Def Con from 4.63727e-007 +++++++++++to 4.63728e-007
Heightened Def Con from 4.63728e-007 ++++to 4.64853e-007
Heightened Def Con from 4.64853e-007 ++++to 4.64868e-007
Heightened Def Con from 4.64868e-007 ++++++++++to 4.6487e-007
Heightened Def Con from 4.6487e-007 +++++++++to 4.6487e-007
Heightened Def Con from 4.6487e-007 ++++++to 4.6487e-007
Heightened Def Con from 4.6487e-007 ++++++++to 4.6587e-007
Heightened Def Con from 4.6587e-007 ++++to 4.65995e-007
Heightened Def Con from 4.65995e-007 +to 4.65995e-007
Heightened Def Con from 4.65995e-007 +to 4.65995e-007
Heightened Def Con from 4.65995e-007 ++to 4.65995e-007
Heightened Def Con from 4.65995e-007 +++++++++++to 4.66011e-007
Heightened Def Con from 4.66011e-007 to 4.66011e-007
Heightened Def Con from 4.66011e-007 +to 4.66011e-007
Heightened Def Con from 4.66011e-007 ++++to 4.67136e-007
Heightened Def Con from 4.67136e-007 ++++to 4.68136e-007
Heightened Def Con from 4.68136e-007 ++to 4.68136e-007
Heightened Def Con from 4.68136e-007 +++++to 4.68136e-007
Heightened Def Con from 4.68136e-007 ++++to 4.68137e-007
Heightened Def Con from 4.68137e-007 ++++++++++to 4.68137e-007
Heightened Def Con from 4.68137e-007 ++++++++to 4.68137e-007
Heightened Def Con from 4.68137e-007 +++++++to 4.68137e-007
Heightened Def Con from 4.68137e-007 +++++++++to 4.68137e-007
Heightened Def Con from 4.68137e-007 ++++++++to 4.68137e-007
Heightened Def Con from 4.68137e-007 ++++to 4.68262e-007
Heightened Def Con from 4.68262e-007 +++++++++to 4.68262e-007
[...]
Heightened Def Con from 7.22244e-007 to 7.22244e-007
Heightened Def Con from 7.22244e-007 to 7.22244e-007
Heightened Def Con from 7.22244e-007 to 7.22246e-007
Heightened Def Con from 7.22246e-007 to 7.22246e-007
Heightened Def Con from 7.22246e-007 to 7.22249e-007
Heightened Def Con from 7.22249e-007 to 7.22249e-007
Heightened Def Con from 7.22249e-007 to 7.22249e-007
Heightened Def Con from 7.22249e-007 to 7.22249e-007
Heightened Def Con from 7.22249e-007 to 7.22249e-007
Heightened Def Con from 7.22249e-007 to 7.22249e-007
Heightened Def Con from 7.22249e-007 to 7.22264e-007
Heightened Def Con from 7.22264e-007 to 7.22264e-007
Heightened Def Con from 7.22264e-007 to 7.22265e-007
Heightened Def Con from 7.22265e-007 to 7.22282e-007
Heightened Def Con from 7.22282e-007 to 7.22282e-007
Heightened Def Con from 7.22282e-007 to 7.22282e-007
Heightened Def Con from 7.22282e-007 to 7.22282e-007
Heightened Def Con from 7.22282e-007 to 7.22284e-007
Heightened Def Con from 7.22284e-007 to 7.22284e-007
Heightened Def Con from 7.22284e-007 to 7.22284e-007
Heightened Def Con from 7.22284e-007 +to 7.22286e-007
Heightened Def Con from 7.22286e-007 +to 7.22288e-007
Heightened Def Con from 7.22288e-007 to 7.22289e-007
Heightened Def Con from 7.22289e-007 +to 7.22289e-007
Heightened Def Con from 7.22289e-007 +to 7.22291e-007
Heightened Def Con from 7.22291e-007 to 7.22293e-007
Heightened Def Con from 7.22293e-007 to 7.22295e-007
Heightened Def Con from 7.22295e-007 to 7.22295e-007
Heightened Def Con from 7.22295e-007 +to 7.22295e-007
Heightened Def Con from 7.22295e-007 +to 7.22297e-007
Heightened Def Con from 7.22298e-007 +to 7.22298e-007
Heightened Def Con from 7.22298e-007 ++to 7.22424e-007
Heightened Def Con from 7.22424e-007 to 7.22439e-007
Heightened Def Con from 7.22439e-007 to 7.22455e-007
Heightened Def Con from 7.22455e-007 to 7.22455e-007
Heightened Def Con from 7.22455e-007 to 7.22457e-007
Heightened Def Con from 7.22457e-007 to 7.22459e-007
Heightened Def Con from 7.22459e-007 to 7.22461e-007
Heightened Def Con from 7.22461e-007 to 7.22463e-007
Heightened Def Con from 7.22463e-007 to 7.22465e-007
Heightened Def Con from 7.22465e-007 to 7.22465e-007
Heightened Def Con from 7.22465e-007 to 7.22465e-007
Heightened Def Con from 7.22465e-007 to 7.22465e-007
Heightened Def Con from 7.22465e-007 to 7.22465e-007
Heightened Def Con from 7.22465e-007 +to 7.2259e-007
Heightened Def Con from 7.2259e-007 +to 7.2259e-007
Heightened Def Con from 7.2259e-007 to 7.2259e-007
Heightened Def Con from 7.2259e-007 +to 7.2259e-007
Heightened Def Con from 7.2259e-007 +to 7.2259e-007
Heightened Def Con from 7.2259e-007 ++to 7.22606e-007
Heightened Def Con from 7.22606e-007 to 7.22606e-007
Heightened Def Con from 7.22606e-007 to 7.22608e-007
Heightened Def Con from 7.22608e-007 to 7.22608e-007
Heightened Def Con from 7.22608e-007 ++to 7.22733e-007
Heightened Def Con from 7.22733e-007 to 7.22733e-007
Heightened Def Con from 7.22733e-007 to 7.22733e-007
Heightened Def Con from 7.22733e-007 to 7.22733e-007
Heightened Def Con from 7.22733e-007 to 7.22733e-007
Heightened Def Con from 7.22733e-007 to 7.22733e-007
Heightened Def Con from 7.22733e-007 to 7.22733e-007
Heightened Def Con from 7.22733e-007 to 7.22733e-007
Heightened Def Con from 7.22733e-007 +to 7.22733e-007
Heightened Def Con from 7.22733e-007 to 7.22734e-007
Heightened Def Con from 7.22734e-007 +to 7.22734e-007
Heightened Def Con from 7.22734e-007 to 7.22734e-007
Heightened Def Con from 7.22734e-007 to 7.22736e-007
Heightened Def Con from 7.22736e-007 to 7.22736e-007
Heightened Def Con from 7.22736e-007 to 7.22736e-007
Heightened Def Con from 7.22737e-007 to 7.22739e-007
Heightened Def Con from 7.22739e-007 to 7.22741e-007
Heightened Def Con from 7.22741e-007 +to 7.22757e-007
Heightened Def Con from 7.22757e-007 to 7.22757e-007
Heightened Def Con from 7.22757e-007 to 7.22772e-007
Heightened Def Con from 7.22772e-007 +to 7.22788e-007
Heightened Def Con from 7.22788e-007 to 7.22788e-007
Heightened Def Con from 7.22788e-007 to 7.22788e-007
Heightened Def Con from 7.22788e-007 ++to 7.22788e-007
Heightened Def Con from 7.22788e-007 to 7.22913e-007
Heightened Def Con from 7.22913e-007 to 7.22913e-007
Heightened Def Con from 7.22913e-007 to 7.22913e-007
Heightened Def Con from 7.22913e-007 to 7.22915e-007
Heightened Def Con from 7.22915e-007 to 7.22917e-007
Heightened Def Con from 7.22917e-007 to 7.22917e-007
Heightened Def Con from 7.22917e-007 to 7.22917e-007
Heightened Def Con from 7.22917e-007 to 7.22917e-007
Heightened Def Con from 7.22917e-007 to 7.22917e-007
Heightened Def Con from 7.22917e-007 to 7.22917e-007
Heightened Def Con from 7.22917e-007 to 7.22917e-007
Heightened Def Con from 7.22917e-007 to 7.22919e-007
Heightened Def Con from 7.22919e-007 +to 7.22919e-007
Heightened Def Con from 7.22919e-007 to 7.22937e-007
Heightened Def Con from 7.22937e-007 +to 7.22937e-007
Heightened Def Con from 7.22937e-007 to 7.22937e-007
Heightened Def Con from 7.22937e-007 to 7.22938e-007
Heightened Def Con from 7.22938e-007 to 7.22938e-007
Heightened Def Con from 7.22938e-007 to 7.22938e-007
Heightened Def Con from 7.22938e-007 +to 7.22938e-007
Heightened Def Con from 7.22938e-007 to 7.22938e-007
Heightened Def Con from 7.22938e-007 ++to 7.22938e-007
Heightened Def Con from 7.22938e-007 to 7.23065e-007
Heightened Def Con from 7.2307e-007 to 7.2307e-007
Heightened Def Con from 7.2307e-007 to 7.2307e-007
Heightened Def Con from 7.2307e-007 to 7.2307e-007
Heightened Def Con from 7.2307e-007 to 7.23072e-007
Heightened Def Con from 7.23072e-007 to 7.23072e-007
Heightened Def Con from 7.23072e-007 to 7.23072e-007
Heightened Def Con from 7.23072e-007 to 7.23072e-007
Heightened Def Con from 7.23072e-007 +to 7.23088e-007
Heightened Def Con from 7.23088e-007 to 7.2309e-007
Heightened Def Con from 7.2309e-007 to 7.2309e-007
Heightened Def Con from 7.2309e-007 to 7.2309e-007
Heightened Def Con from 7.2309e-007 to 7.23108e-007
Heightened Def Con from 7.23108e-007 to 7.23108e-007
Heightened Def Con from 7.23108e-007 to 7.23112e-007
Heightened Def Con from 7.23112e-007 to 7.23112e-007
Heightened Def Con from 7.23112e-007 +to 7.23112e-007
Heightened Def Con from 7.23116e-007 to 7.23118e-007
Heightened Def Con from 7.23118e-007 to 7.23118e-007
Heightened Def Con from 7.23119e-007 to 7.23122e-007
Heightened Def Con from 7.23122e-007 to 7.23122e-007
Heightened Def Con from 7.23122e-007 to 7.23122e-007
Heightened Def Con from 7.23122e-007 to 7.23122e-007
Heightened Def Con from 7.23122e-007 to 7.23122e-007
Heightened Def Con from 7.23122e-007 to 7.23122e-007
Heightened Def Con from 7.23122e-007 to 7.23123e-007
Heightened Def Con from 7.23123e-007 to 7.23123e-007
Heightened Def Con from 7.23123e-007 to 7.23123e-007
Heightened Def Con from 7.23123e-007 to 7.23124e-007
Heightened Def Con from 7.23124e-007 to 7.23124e-007
Heightened Def Con from 7.23124e-007 to 7.23124e-007
Heightened Def Con from 7.23124e-007 +to 7.23126e-007
Heightened Def Con from 7.23126e-007 +to 7.23126e-007
Heightened Def Con from 7.23126e-007 to 7.23126e-007
Heightened Def Con from 7.23126e-007 to 7.23126e-007
Heightened Def Con from 7.23126e-007 to 7.23251e-007
Heightened Def Con from 7.23251e-007 to 7.23251e-007
Heightened Def Con from 7.23252e-007 to 7.23377e-007
Heightened Def Con from 7.23377e-007 to 7.23377e-007
Heightened Def Con from 7.23377e-007 to 7.23377e-007
Heightened Def Con from 7.23377e-007 ++to 7.23379e-007
Heightened Def Con from 7.23379e-007 to 7.23379e-007
Heightened Def Con from 7.23379e-007 +to 7.23379e-007
Heightened Def Con from 7.23379e-007 to 7.23379e-007
Heightened Def Con from 7.23379e-007 to 7.23381e-007
Heightened Def Con from 7.23381e-007 to 7.23381e-007
Heightened Def Con from 7.23381e-007 +to 7.23381e-007
Heightened Def Con from 7.23381e-007 to 7.23383e-007
Heightened Def Con from 7.23383e-007 to 7.23383e-007
Heightened Def Con from 7.23383e-007 to 7.23383e-007
Heightened Def Con from 7.23383e-007 to 7.23383e-007
Heightened Def Con from 7.23383e-007 to 7.23383e-007
Heightened Def Con from 7.23383e-007 to 7.23383e-007
Heightened Def Con from 7.23383e-007 +to 7.23383e-007
Heightened Def Con from 7.23383e-007 to 7.23384e-007
Heightened Def Con from 7.23384e-007 to 7.23384e-007
Heightened Def Con from 7.23384e-007 +to 7.23384e-007
Heightened Def Con from 7.23384e-007 to 7.23384e-007
Heightened Def Con from 7.23384e-007 to 7.23399e-007
Heightened Def Con from 7.23399e-007 to 7.234e-007
Heightened Def Con from 7.234e-007 to 7.234e-007
Heightened Def Con from 7.234e-007 to 7.234e-007
Heightened Def Con from 7.234e-007 to 7.234e-007
Heightened Def Con from 7.234e-007 to 7.234e-007
Heightened Def Con from 7.234e-007 to 7.234e-007
Heightened Def Con from 7.234e-007 to 7.234e-007
Heightened Def Con from 7.234e-007 to 7.234e-007
Heightened Def Con from 7.234e-007 to 7.234e-007
Heightened Def Con from 7.234e-007 to 7.244e-007
Heightened Def Con from 7.244e-007 to 7.244e-007
Heightened Def Con from 7.244e-007 to 7.24402e-007
Heightened Def Con from 7.24402e-007 to 7.24402e-007
Heightened Def Con from 7.24402e-007 to 7.24403e-007
Heightened Def Con from 7.24403e-007 to 7.24403e-007
Heightened Def Con from 7.24403e-007 to 7.25403e-007
Heightened Def Con from 7.25403e-007 to 7.25403e-007
Heightened Def Con from 7.25403e-007 ++to 7.25403e-007
Heightened Def Con from 7.25403e-007 to 7.25403e-007
Heightened Def Con from 7.25403e-007 to 7.25434e-007
Heightened Def Con from 7.25434e-007 +to 7.25559e-007
Heightened Def Con from 7.25559e-007 to 7.25559e-007
Heightened Def Con from 7.25559e-007 to 7.25559e-007
Heightened Def Con from 7.25559e-007 to 7.25559e-007
Heightened Def Con from 7.25559e-007 +to 7.25559e-007
Heightened Def Con from 7.25559e-007 to 7.25559e-007
Heightened Def Con from 7.25559e-007 to 7.25562e-007
Heightened Def Con from 7.25562e-007 to 7.25564e-007
Heightened Def Con from 7.25564e-007 to 7.25564e-007
Heightened Def Con from 7.25564e-007 to 7.25566e-007
Heightened Def Con from 7.25566e-007 to 7.25568e-007
Heightened Def Con from 7.25568e-007 to 7.25568e-007
Heightened Def Con from 7.25568e-007 to 7.25584e-007
Heightened Def Con from 7.25584e-007 to 7.25584e-007
Heightened Def Con from 7.25584e-007 ++to 7.25709e-007
Heightened Def Con from 7.2571e-007 to 7.2571e-007
Heightened Def Con from 7.2571e-007 to 7.2571e-007
Heightened Def Con from 7.2571e-007 to 7.2571e-007
Heightened Def Con from 7.2571e-007 to 7.2571e-007
Heightened Def Con from 7.2571e-007 to 7.2571e-007
Heightened Def Con from 7.2571e-007 to 7.25714e-007
Heightened Def Con from 7.25714e-007 to 7.25714e-007
Heightened Def Con from 7.25714e-007 +to 7.2573e-007
Heightened Def Con from 7.2573e-007 to 7.2573e-007
Heightened Def Con from 7.2573e-007 +to 7.2573e-007
Heightened Def Con from 7.2573e-007 to 7.26855e-007
Heightened Def Con from 7.2689e-007 to 7.2689e-007
Heightened Def Con from 7.2689e-007 +to 7.2689e-007
Heightened Def Con from 7.2689e-007 to 7.26905e-007
Heightened Def Con from 7.26905e-007 +to 7.26921e-007
Heightened Def Con from 7.26921e-007 +to 7.26921e-007
Heightened Def Con from 7.26921e-007 to 7.26921e-007
Heightened Def Con from 7.26921e-007 to 7.26921e-007
Heightened Def Con from 7.26921e-007 to 7.26921e-007
Heightened Def Con from 7.26921e-007 to 7.26921e-007
Heightened Def Con from 7.26921e-007 to 7.26921e-007
Heightened Def Con from 7.26921e-007 to 7.26923e-007
Heightened Def Con from 7.26923e-007 to 7.26923e-007
Heightened Def Con from 7.26923e-007 ++to 7.27923e-007
Heightened Def Con from 7.27923e-007 to 7.27923e-007
Heightened Def Con from 7.27923e-007 to 7.27938e-007
Heightened Def Con from 7.27939e-007 +to 7.2794e-007
Heightened Def Con from 7.27941e-007 ++to 7.27957e-007
Heightened Def Con from 7.27961e-007 ++to 7.27961e-007
Heightened Def Con from 7.27961e-007 to 7.27976e-007
Heightened Def Con from 7.27976e-007 to 7.27976e-007
Heightened Def Con from 7.27976e-007 to 7.27976e-007
Heightened Def Con from 7.27976e-007 to 7.27976e-007
Heightened Def Con from 7.27976e-007 to 7.27976e-007
Heightened Def Con from 7.27976e-007 +to 7.27976e-007
Heightened Def Con from 7.27976e-007 +to 7.27977e-007
Heightened Def Con from 7.27977e-007 to 7.27977e-007
Heightened Def Con from 7.27977e-007 +to 7.27977e-007
Heightened Def Con from 7.27977e-007 +to 7.27977e-007
Heightened Def Con from 7.27977e-007 to 7.27977e-007
Heightened Def Con from 7.27977e-007 +to 7.27977e-007
Heightened Def Con from 7.27977e-007 to 7.27977e-007
Heightened Def Con from 7.27977e-007 to 7.27977e-007
Heightened Def Con from 7.27977e-007 +++++to 7.27977e-007
Heightened Def Con from 7.27977e-007 to 7.27977e-007
Heightened Def Con from 7.27977e-007 to 7.27979e-007
Heightened Def Con from 7.27979e-007 to 7.27979e-007
Heightened Def Con from 7.27979e-007 to 7.27979e-007
Heightened Def Con from 7.27979e-007 to 7.27979e-007
Heightened Def Con from 7.27979e-007 ++to 7.2798e-007
Heightened Def Con from 7.2798e-007 to 7.2798e-007
Heightened Def Con from 7.2798e-007 to 7.2798e-007
Heightened Def Con from 7.2798e-007 to 7.2798e-007
Heightened Def Con from 7.2798e-007 to 7.27982e-007
Heightened Def Con from 7.27982e-007 to 7.27982e-007
Heightened Def Con from 7.27982e-007 to 7.27984e-007
Heightened Def Con from 7.27984e-007 to 7.27984e-007
Heightened Def Con from 7.27984e-007 to 7.27984e-007
Heightened Def Con from 7.27984e-007 to 7.27988e-007
Heightened Def Con from 7.27988e-007 to 7.27988e-007
Heightened Def Con from 7.27988e-007 to 7.27988e-007
Heightened Def Con from 7.27988e-007 to 7.27988e-007
Heightened Def Con from 7.27988e-007 to 7.2799e-007
Heightened Def Con from 7.2799e-007 to 7.2799e-007
Heightened Def Con from 7.2799e-007 to 7.2799e-007
Heightened Def Con from 7.2799e-007 to 7.27992e-007
Heightened Def Con from 7.27992e-007 to 7.27992e-007
Heightened Def Con from 7.27992e-007 +to 7.27993e-007
Heightened Def Con from 7.27994e-007 to 7.27994e-007
Heightened Def Con from 7.27994e-007 to 7.28994e-007
Heightened Def Con from 7.28994e-007 to 7.2901e-007
Heightened Def Con from 7.2901e-007 to 7.2901e-007
Heightened Def Con from 7.2901e-007 to 7.2901e-007
Heightened Def Con from 7.2901e-007 to 7.2901e-007
Heightened Def Con from 7.2901e-007 to 7.29011e-007
Heightened Def Con from 7.29011e-007 to 7.29011e-007
Heightened Def Con from 7.29011e-007 to 7.29011e-007
Heightened Def Con from 7.29011e-007 to 7.29013e-007
Heightened Def Con from 7.29013e-007 to 7.29013e-007
Heightened Def Con from 7.29013e-007 to 7.29013e-007
Heightened Def Con from 7.29013e-007 to 7.29013e-007
Heightened Def Con from 7.29013e-007 to 7.29013e-007
Heightened Def Con from 7.29013e-007 +to 7.29013e-007
Heightened Def Con from 7.29013e-007 to 7.29015e-007
Heightened Def Con from 7.29015e-007 to 7.29015e-007
Heightened Def Con from 7.29015e-007 to 7.2914e-007
Heightened Def Con from 7.2914e-007 to 7.2914e-007
Heightened Def Con from 7.2914e-007 to 7.2914e-007
Heightened Def Con from 7.2914e-007 +to 7.29158e-007
Heightened Def Con from 7.29158e-007 to 7.29158e-007
Heightened Def Con from 7.29158e-007 +to 7.29158e-007
Heightened Def Con from 7.29158e-007 ++to 7.2916e-007
Heightened Def Con from 7.2916e-007 to 7.2916e-007
Heightened Def Con from 7.2916e-007 to 7.2916e-007
Heightened Def Con from 7.2916e-007 to 7.29161e-007
Heightened Def Con from 7.29161e-007 +to 7.29286e-007
Heightened Def Con from 7.29286e-007 to 7.29286e-007
Heightened Def Con from 7.29286e-007 +to 7.29302e-007
Heightened Def Con from 7.29302e-007 to 7.29302e-007
Heightened Def Con from 7.29302e-007 to 7.29306e-007
Heightened Def Con from 7.29306e-007 to 7.29306e-007
Heightened Def Con from 7.29306e-007 to 7.29306e-007
Heightened Def Con from 7.29306e-007 to 7.29306e-007
Heightened Def Con from 7.29306e-007 +to 7.29306e-007
Heightened Def Con from 7.29306e-007 to 7.29308e-007
Heightened Def Con from 7.29308e-007 to 7.29308e-007
Heightened Def Con from 7.29308e-007 to 7.29309e-007
Heightened Def Con from 7.29309e-007 to 7.2934e-007
Heightened Def Con from 7.2934e-007 to 7.2934e-007
Heightened Def Con from 7.2934e-007 to 7.2934e-007
Heightened Def Con from 7.2934e-007 +to 7.2934e-007
Heightened Def Con from 7.2934e-007 to 7.29356e-007
Heightened Def Con from 7.29356e-007 ++to 7.29356e-007
Heightened Def Con from 7.29356e-007 to 7.29356e-007
Heightened Def Con from 7.29356e-007 to 7.29356e-007
Heightened Def Con from 7.29356e-007 to 7.29358e-007
Heightened Def Con from 7.29358e-007 to 7.29358e-007
Heightened Def Con from 7.29358e-007 to 7.29358e-007
Heightened Def Con from 7.29358e-007 +to 7.29358e-007
Heightened Def Con from 7.29358e-007 to 7.2936e-007
Heightened Def Con from 7.2936e-007 +to 7.29362e-007
Heightened Def Con from 7.29362e-007 to 7.29364e-007
Heightened Def Con from 7.29364e-007 to 7.29365e-007
Heightened Def Con from 7.29365e-007 to 7.29365e-007
Heightened Def Con from 7.29365e-007 to 7.29365e-007
Heightened Def Con from 7.29365e-007 to 7.29367e-007
Heightened Def Con from 7.29367e-007 to 7.29367e-007
Heightened Def Con from 7.29367e-007 +to 7.29367e-007
Heightened Def Con from 7.29367e-007 to 7.29367e-007
Heightened Def Con from 7.29367e-007 to 7.29369e-007
Heightened Def Con from 7.29369e-007 ++to 7.29494e-007
Heightened Def Con from 7.29494e-007 to 7.29495e-007
Heightened Def Con from 7.29495e-007 to 7.29495e-007
Heightened Def Con from 7.29495e-007 to 7.29495e-007
Heightened Def Con from 7.29495e-007 +to 7.29511e-007
Heightened Def Con from 7.29511e-007 to 7.29511e-007
Heightened Def Con from 7.29511e-007 +to 7.29514e-007
Heightened Def Con from 7.29514e-007 +to 7.29514e-007
Heightened Def Con from 7.29514e-007 to 7.29514e-007
Heightened Def Con from 7.29514e-007 to 7.29515e-007
Heightened Def Con from 7.29515e-007 +to 7.29515e-007
Heightened Def Con from 7.29515e-007 +to 7.29515e-007
Heightened Def Con from 7.29515e-007 to 7.29515e-007
Heightened Def Con from 7.29515e-007 to 7.29515e-007
Heightened Def Con from 7.29515e-007 to 7.29515e-007
Heightened Def Con from 7.29515e-007 to 7.29517e-007
Heightened Def Con from 7.29517e-007 to 7.29517e-007
Heightened Def Con from 7.29517e-007 to 7.29518e-007
Heightened Def Con from 7.29518e-007 to 7.29518e-007
Heightened Def Con from 7.29518e-007 to 7.29518e-007
Heightened Def Con from 7.29518e-007 to 7.2952e-007
Heightened Def Con from 7.2952e-007 +to 7.2952e-007
Heightened Def Con from 7.2952e-007 to 7.2952e-007
Heightened Def Con from 7.2952e-007 to 7.2952e-007
Heightened Def Con from 7.2952e-007 to 7.2952e-007
Heightened Def Con from 7.2952e-007 +to 7.2952e-007
Heightened Def Con from 7.29521e-007 to 7.29521e-007
Heightened Def Con from 7.29521e-007 to 7.29521e-007
Heightened Def Con from 7.29521e-007 to 7.29521e-007
Heightened Def Con from 7.29521e-007 +to 7.29523e-007
Heightened Def Con from 7.29523e-007 to 7.29523e-007
Heightened Def Con from 7.29523e-007 to 7.29523e-007
Heightened Def Con from 7.29523e-007 to 7.29773e-007
Heightened Def Con from 7.29773e-007 to 7.29773e-007
Heightened Def Con from 7.29773e-007 to 7.29773e-007
Heightened Def Con from 7.29773e-007 to 7.29789e-007
Heightened Def Con from 7.29789e-007 to 7.29791e-007
Heightened Def Con from 7.29791e-007 +to 7.29793e-007
Heightened Def Con from 7.29793e-007 to 7.29793e-007
Heightened Def Con from 7.29793e-007 ++to 7.29795e-007
Heightened Def Con from 7.29795e-007 to 7.29795e-007

Date: Mon Jan 16 19:56:09 2012
Total elapsed time: 9.809 seconds.

tnom = 27
temp = 27
method = modified trap
totiter = 5157995
traniter = 5157995
tranpoints = 478162
accept = 65041
rejected = 452845
matrix size = 8
fillins = 5
solver = Normal
Matrix Compiler1: 672 Bytes object code size  0.6/0.2/[0.1]
Matrix Compiler2: 690 Bytes object code size  0.2/0.2/[0.2]


